/*---------------------------------------------------------------------------*\
  =========                 |
  \\      /  F ield         | OpenFOAM: The Open Source CFD Toolbox
   \\    /   O peration     | Website:  https://openfoam.org
    \\  /    A nd           | Version:  7
     \\/     M anipulation  |
\*---------------------------------------------------------------------------*/
Build  : 7-ca808c8420bf
Exec   : simpleFoam
Date   : Mar 11 2020
Time   : 11:02:09
Host   : "bn371671"
PID    : 1950
I/O    : uncollated
Case   : /hpc_atog/bsha219/OpenFoam-Tutorials/SingleBif
nProcs : 1
sigFpe : Enabling floating point exception trapping (FOAM_SIGFPE).
fileModificationChecking : Monitoring run-time modified files using timeStampMaster (fileModificationSkew 10)
allowSystemOperations : Allowing user-supplied system call operations

// * * * * * * * * * * * * * * * * * * * * * * * * * * * * * * * * * * * * * //
Create time

Create mesh for time = 0


SIMPLE: Convergence criteria found
        p: tolerance 1e-06
        U: tolerance 1e-06
        "(k|epsilon|omega|f|v2)": tolerance 0.001

Reading field p

Reading field U

Reading/calculating face flux field phi

Selecting incompressible transport model Newtonian
Selecting turbulence model type laminar
Selecting laminar stress model Stokes
No MRF models present

No finite volume options present

Starting time loop

Time = 1

smoothSolver:  Solving for Ux, Initial residual = 1, Final residual = 0.0781314, No Iterations 1
smoothSolver:  Solving for Uy, Initial residual = 1, Final residual = 0.0751054, No Iterations 1
smoothSolver:  Solving for Uz, Initial residual = 1, Final residual = 0.0446153, No Iterations 2
GAMG:  Solving for p, Initial residual = 1, Final residual = 0.048063, No Iterations 12
time step continuity errors : sum local = 0.0329628, global = -0.00416865, cumulative = -0.00416865
ExecutionTime = 4.16 s  ClockTime = 5 s

Time = 2

smoothSolver:  Solving for Ux, Initial residual = 0.397564, Final residual = 0.0299365, No Iterations 2
smoothSolver:  Solving for Uy, Initial residual = 0.445984, Final residual = 0.0242159, No Iterations 2
smoothSolver:  Solving for Uz, Initial residual = 0.375828, Final residual = 0.0355088, No Iterations 3
GAMG:  Solving for p, Initial residual = 0.0772467, Final residual = 0.00448442, No Iterations 2
time step continuity errors : sum local = 1.06563, global = 0.344467, cumulative = 0.340299
ExecutionTime = 5.62 s  ClockTime = 6 s

Time = 3

smoothSolver:  Solving for Ux, Initial residual = 0.25179, Final residual = 0.0178969, No Iterations 3
smoothSolver:  Solving for Uy, Initial residual = 0.360118, Final residual = 0.0208111, No Iterations 3
smoothSolver:  Solving for Uz, Initial residual = 0.272751, Final residual = 0.0182896, No Iterations 4
GAMG:  Solving for p, Initial residual = 0.0508678, Final residual = 0.00351329, No Iterations 4
time step continuity errors : sum local = 0.529613, global = 0.0331121, cumulative = 0.373411
ExecutionTime = 7.33 s  ClockTime = 8 s

Time = 4

smoothSolver:  Solving for Ux, Initial residual = 0.279431, Final residual = 0.0166001, No Iterations 2
smoothSolver:  Solving for Uy, Initial residual = 0.413718, Final residual = 0.0195281, No Iterations 2
smoothSolver:  Solving for Uz, Initial residual = 0.226385, Final residual = 0.015371, No Iterations 2
GAMG:  Solving for p, Initial residual = 0.241967, Final residual = 0.0152125, No Iterations 2
time step continuity errors : sum local = 0.522726, global = 0.0619165, cumulative = 0.435327
ExecutionTime = 8.71 s  ClockTime = 9 s

Time = 5

smoothSolver:  Solving for Ux, Initial residual = 0.129942, Final residual = 0.0105234, No Iterations 2
smoothSolver:  Solving for Uy, Initial residual = 0.247092, Final residual = 0.015507, No Iterations 2
smoothSolver:  Solving for Uz, Initial residual = 0.127751, Final residual = 0.0058815, No Iterations 3
GAMG:  Solving for p, Initial residual = 0.152442, Final residual = 0.0113455, No Iterations 2
time step continuity errors : sum local = 0.289452, global = 0.0725735, cumulative = 0.507901
ExecutionTime = 10.13 s  ClockTime = 10 s

Time = 6

smoothSolver:  Solving for Ux, Initial residual = 0.0763383, Final residual = 0.00418309, No Iterations 3
smoothSolver:  Solving for Uy, Initial residual = 0.15021, Final residual = 0.00738763, No Iterations 3
smoothSolver:  Solving for Uz, Initial residual = 0.0920636, Final residual = 0.00604727, No Iterations 3
GAMG:  Solving for p, Initial residual = 0.112407, Final residual = 0.00600659, No Iterations 3
time step continuity errors : sum local = 0.124905, global = -0.0162758, cumulative = 0.491625
ExecutionTime = 11.73 s  ClockTime = 12 s

Time = 7

smoothSolver:  Solving for Ux, Initial residual = 0.0646656, Final residual = 0.00443647, No Iterations 3
smoothSolver:  Solving for Uy, Initial residual = 0.117602, Final residual = 0.00691346, No Iterations 3
smoothSolver:  Solving for Uz, Initial residual = 0.0859163, Final residual = 0.00789071, No Iterations 3
GAMG:  Solving for p, Initial residual = 0.0654002, Final residual = 0.0036285, No Iterations 2
time step continuity errors : sum local = 0.0828585, global = -0.0177424, cumulative = 0.473882
ExecutionTime = 13.31 s  ClockTime = 14 s

Time = 8

smoothSolver:  Solving for Ux, Initial residual = 0.0529891, Final residual = 0.0041888, No Iterations 3
smoothSolver:  Solving for Uy, Initial residual = 0.0945028, Final residual = 0.00709488, No Iterations 3
smoothSolver:  Solving for Uz, Initial residual = 0.0818571, Final residual = 0.00473197, No Iterations 4
GAMG:  Solving for p, Initial residual = 0.041159, Final residual = 0.00241264, No Iterations 3
time step continuity errors : sum local = 0.0651751, global = 0.01068, cumulative = 0.484562
ExecutionTime = 15.04 s  ClockTime = 15 s

Time = 9

smoothSolver:  Solving for Ux, Initial residual = 0.0404446, Final residual = 0.00386202, No Iterations 3
smoothSolver:  Solving for Uy, Initial residual = 0.0724377, Final residual = 0.0070571, No Iterations 3
smoothSolver:  Solving for Uz, Initial residual = 0.0738885, Final residual = 0.00458282, No Iterations 4
GAMG:  Solving for p, Initial residual = 0.0303094, Final residual = 0.00190492, No Iterations 3
time step continuity errors : sum local = 0.0574551, global = -0.0131568, cumulative = 0.471406
ExecutionTime = 16.66 s  ClockTime = 17 s

Time = 10

smoothSolver:  Solving for Ux, Initial residual = 0.0324754, Final residual = 0.00174342, No Iterations 4
smoothSolver:  Solving for Uy, Initial residual = 0.0598388, Final residual = 0.00335435, No Iterations 4
smoothSolver:  Solving for Uz, Initial residual = 0.0647978, Final residual = 0.00405951, No Iterations 4
GAMG:  Solving for p, Initial residual = 0.0285955, Final residual = 0.00146109, No Iterations 3
time step continuity errors : sum local = 0.0430327, global = 0.00715941, cumulative = 0.478565
ExecutionTime = 18.39 s  ClockTime = 19 s

Time = 11

smoothSolver:  Solving for Ux, Initial residual = 0.0301242, Final residual = 0.00286519, No Iterations 3
smoothSolver:  Solving for Uy, Initial residual = 0.0565034, Final residual = 0.00515354, No Iterations 3
smoothSolver:  Solving for Uz, Initial residual = 0.0556728, Final residual = 0.00330565, No Iterations 4
GAMG:  Solving for p, Initial residual = 0.0319625, Final residual = 0.00234645, No Iterations 2
time step continuity errors : sum local = 0.0615369, global = 0.013459, cumulative = 0.492024
ExecutionTime = 20.31 s  ClockTime = 21 s

Time = 12

smoothSolver:  Solving for Ux, Initial residual = 0.0259241, Final residual = 0.00141456, No Iterations 4
smoothSolver:  Solving for Uy, Initial residual = 0.0455983, Final residual = 0.0024244, No Iterations 4
smoothSolver:  Solving for Uz, Initial residual = 0.0497923, Final residual = 0.00298907, No Iterations 4
GAMG:  Solving for p, Initial residual = 0.0287649, Final residual = 0.00243627, No Iterations 2
time step continuity errors : sum local = 0.0602602, global = 0.0193376, cumulative = 0.511362
ExecutionTime = 22.59 s  ClockTime = 23 s

Time = 13

smoothSolver:  Solving for Ux, Initial residual = 0.0223378, Final residual = 0.00118979, No Iterations 4
smoothSolver:  Solving for Uy, Initial residual = 0.0401186, Final residual = 0.00399973, No Iterations 3
smoothSolver:  Solving for Uz, Initial residual = 0.0442931, Final residual = 0.00263491, No Iterations 4
GAMG:  Solving for p, Initial residual = 0.0292745, Final residual = 0.00133739, No Iterations 3
time step continuity errors : sum local = 0.0298757, global = -0.00413197, cumulative = 0.50723
ExecutionTime = 24.67 s  ClockTime = 25 s

Time = 14

smoothSolver:  Solving for Ux, Initial residual = 0.0199808, Final residual = 0.00194232, No Iterations 3
smoothSolver:  Solving for Uy, Initial residual = 0.0374341, Final residual = 0.00356716, No Iterations 3
smoothSolver:  Solving for Uz, Initial residual = 0.0375984, Final residual = 0.00216088, No Iterations 4
GAMG:  Solving for p, Initial residual = 0.033771, Final residual = 0.00195559, No Iterations 2
time step continuity errors : sum local = 0.0370346, global = -0.000213107, cumulative = 0.507017
ExecutionTime = 26.77 s  ClockTime = 27 s

Time = 15

smoothSolver:  Solving for Ux, Initial residual = 0.017048, Final residual = 0.000905196, No Iterations 4
smoothSolver:  Solving for Uy, Initial residual = 0.0316484, Final residual = 0.0017003, No Iterations 4
smoothSolver:  Solving for Uz, Initial residual = 0.0345191, Final residual = 0.00205806, No Iterations 4
GAMG:  Solving for p, Initial residual = 0.0305892, Final residual = 0.00230038, No Iterations 2
time step continuity errors : sum local = 0.0409799, global = -0.00148518, cumulative = 0.505531
ExecutionTime = 28.66 s  ClockTime = 29 s

Time = 16

smoothSolver:  Solving for Ux, Initial residual = 0.0153499, Final residual = 0.000810092, No Iterations 4
smoothSolver:  Solving for Uy, Initial residual = 0.0286809, Final residual = 0.001545, No Iterations 4
smoothSolver:  Solving for Uz, Initial residual = 0.0308882, Final residual = 0.00185406, No Iterations 4
GAMG:  Solving for p, Initial residual = 0.0302492, Final residual = 0.00264434, No Iterations 2
time step continuity errors : sum local = 0.0432239, global = -0.00129487, cumulative = 0.504237
ExecutionTime = 30.6 s  ClockTime = 31 s

Time = 17

smoothSolver:  Solving for Ux, Initial residual = 0.01388, Final residual = 0.000717598, No Iterations 4
smoothSolver:  Solving for Uy, Initial residual = 0.0259131, Final residual = 0.0013614, No Iterations 4
smoothSolver:  Solving for Uz, Initial residual = 0.0276768, Final residual = 0.00166854, No Iterations 4
GAMG:  Solving for p, Initial residual = 0.0316486, Final residual = 0.00167261, No Iterations 2
time step continuity errors : sum local = 0.0246702, global = 0.00096138, cumulative = 0.505198
ExecutionTime = 32.53 s  ClockTime = 33 s

Time = 18

smoothSolver:  Solving for Ux, Initial residual = 0.0126676, Final residual = 0.000671489, No Iterations 4
smoothSolver:  Solving for Uy, Initial residual = 0.0236492, Final residual = 0.00127872, No Iterations 4
smoothSolver:  Solving for Uz, Initial residual = 0.0251546, Final residual = 0.00153984, No Iterations 4
GAMG:  Solving for p, Initial residual = 0.0297188, Final residual = 0.0021341, No Iterations 2
time step continuity errors : sum local = 0.0297095, global = 0.0023637, cumulative = 0.507562
ExecutionTime = 34.46 s  ClockTime = 35 s

Time = 19

smoothSolver:  Solving for Ux, Initial residual = 0.0116131, Final residual = 0.000611105, No Iterations 4
smoothSolver:  Solving for Uy, Initial residual = 0.0216566, Final residual = 0.0011527, No Iterations 4
smoothSolver:  Solving for Uz, Initial residual = 0.0227549, Final residual = 0.00140327, No Iterations 4
GAMG:  Solving for p, Initial residual = 0.0303151, Final residual = 0.0016886, No Iterations 2
time step continuity errors : sum local = 0.0216804, global = 0.0013348, cumulative = 0.508896
ExecutionTime = 36.3 s  ClockTime = 37 s

Time = 20

smoothSolver:  Solving for Ux, Initial residual = 0.0107156, Final residual = 0.000574159, No Iterations 4
smoothSolver:  Solving for Uy, Initial residual = 0.0200476, Final residual = 0.001087, No Iterations 4
smoothSolver:  Solving for Uz, Initial residual = 0.0207654, Final residual = 0.00129313, No Iterations 4
GAMG:  Solving for p, Initial residual = 0.0292907, Final residual = 0.00167518, No Iterations 2
time step continuity errors : sum local = 0.0202318, global = 0.00113659, cumulative = 0.510033
ExecutionTime = 38.19 s  ClockTime = 39 s

Time = 21

smoothSolver:  Solving for Ux, Initial residual = 0.00986579, Final residual = 0.000531821, No Iterations 4
smoothSolver:  Solving for Uy, Initial residual = 0.0183762, Final residual = 0.00100092, No Iterations 4
smoothSolver:  Solving for Uz, Initial residual = 0.0192278, Final residual = 0.00121254, No Iterations 4
GAMG:  Solving for p, Initial residual = 0.0284649, Final residual = 0.00155278, No Iterations 2
time step continuity errors : sum local = 0.0176788, global = 0.000703215, cumulative = 0.510736
ExecutionTime = 40.12 s  ClockTime = 40 s

Time = 22

smoothSolver:  Solving for Ux, Initial residual = 0.00919771, Final residual = 0.000501933, No Iterations 4
smoothSolver:  Solving for Uy, Initial residual = 0.0171753, Final residual = 0.000943102, No Iterations 4
smoothSolver:  Solving for Uz, Initial residual = 0.0177179, Final residual = 0.00112258, No Iterations 4
GAMG:  Solving for p, Initial residual = 0.0278728, Final residual = 0.00131877, No Iterations 2
time step continuity errors : sum local = 0.0141908, global = 0.000566679, cumulative = 0.511303
ExecutionTime = 41.98 s  ClockTime = 42 s

Time = 23

smoothSolver:  Solving for Ux, Initial residual = 0.00852788, Final residual = 0.000468707, No Iterations 4
smoothSolver:  Solving for Uy, Initial residual = 0.01584, Final residual = 0.000879597, No Iterations 4
smoothSolver:  Solving for Uz, Initial residual = 0.0166165, Final residual = 0.00106486, No Iterations 4
GAMG:  Solving for p, Initial residual = 0.0267041, Final residual = 0.00264574, No Iterations 1
time step continuity errors : sum local = 0.0271622, global = 0.000475438, cumulative = 0.511778
ExecutionTime = 43.79 s  ClockTime = 44 s

Time = 24

smoothSolver:  Solving for Ux, Initial residual = 0.00780803, Final residual = 0.000438903, No Iterations 4
smoothSolver:  Solving for Uy, Initial residual = 0.0147748, Final residual = 0.000840498, No Iterations 4
smoothSolver:  Solving for Uz, Initial residual = 0.0157432, Final residual = 0.00102511, No Iterations 4
GAMG:  Solving for p, Initial residual = 0.0226825, Final residual = 0.00119567, No Iterations 2
time step continuity errors : sum local = 0.012032, global = -0.000931857, cumulative = 0.510846
ExecutionTime = 45.7 s  ClockTime = 46 s

Time = 25

smoothSolver:  Solving for Ux, Initial residual = 0.00753642, Final residual = 0.00041092, No Iterations 4
smoothSolver:  Solving for Uy, Initial residual = 0.0142999, Final residual = 0.000770233, No Iterations 4
smoothSolver:  Solving for Uz, Initial residual = 0.014228, Final residual = 0.000909839, No Iterations 4
GAMG:  Solving for p, Initial residual = 0.0254477, Final residual = 0.00189921, No Iterations 1
time step continuity errors : sum local = 0.017155, global = -0.000186508, cumulative = 0.51066
ExecutionTime = 47.43 s  ClockTime = 48 s

Time = 26

smoothSolver:  Solving for Ux, Initial residual = 0.00678717, Final residual = 0.000390465, No Iterations 4
smoothSolver:  Solving for Uy, Initial residual = 0.0128578, Final residual = 0.000742691, No Iterations 4
smoothSolver:  Solving for Uz, Initial residual = 0.0135267, Final residual = 0.000883305, No Iterations 4
GAMG:  Solving for p, Initial residual = 0.021649, Final residual = 0.00161983, No Iterations 1
time step continuity errors : sum local = 0.014494, global = 0.000207856, cumulative = 0.510868
ExecutionTime = 49.25 s  ClockTime = 50 s

Time = 27

smoothSolver:  Solving for Ux, Initial residual = 0.00639471, Final residual = 0.000373505, No Iterations 4
smoothSolver:  Solving for Uy, Initial residual = 0.0121576, Final residual = 0.00071312, No Iterations 4
smoothSolver:  Solving for Uz, Initial residual = 0.0129407, Final residual = 0.000857838, No Iterations 4
GAMG:  Solving for p, Initial residual = 0.0197618, Final residual = 0.00182016, No Iterations 1
time step continuity errors : sum local = 0.0161841, global = 0.000351567, cumulative = 0.511219
ExecutionTime = 51.03 s  ClockTime = 51 s

Time = 28

smoothSolver:  Solving for Ux, Initial residual = 0.00605236, Final residual = 0.000354307, No Iterations 4
smoothSolver:  Solving for Uy, Initial residual = 0.0114133, Final residual = 0.000669262, No Iterations 4
smoothSolver:  Solving for Uz, Initial residual = 0.0122248, Final residual = 0.000812259, No Iterations 4
GAMG:  Solving for p, Initial residual = 0.0196749, Final residual = 0.00164552, No Iterations 1
time step continuity errors : sum local = 0.0141097, global = -0.000376193, cumulative = 0.510843
ExecutionTime = 52.81 s  ClockTime = 53 s

Time = 29

smoothSolver:  Solving for Ux, Initial residual = 0.00574323, Final residual = 0.000340055, No Iterations 4
smoothSolver:  Solving for Uy, Initial residual = 0.010841, Final residual = 0.000644074, No Iterations 4
smoothSolver:  Solving for Uz, Initial residual = 0.0115704, Final residual = 0.000773205, No Iterations 4
GAMG:  Solving for p, Initial residual = 0.0189595, Final residual = 0.00137366, No Iterations 1
time step continuity errors : sum local = 0.0114438, global = 0.00111035, cumulative = 0.511954
ExecutionTime = 54.59 s  ClockTime = 55 s

Time = 30

smoothSolver:  Solving for Ux, Initial residual = 0.00548058, Final residual = 0.000328749, No Iterations 4
smoothSolver:  Solving for Uy, Initial residual = 0.0102959, Final residual = 0.000619844, No Iterations 4
smoothSolver:  Solving for Uz, Initial residual = 0.0110561, Final residual = 0.000745804, No Iterations 4
GAMG:  Solving for p, Initial residual = 0.0177264, Final residual = 0.00156788, No Iterations 1
time step continuity errors : sum local = 0.0129706, global = -0.00122584, cumulative = 0.510728
ExecutionTime = 56.4 s  ClockTime = 57 s

Time = 31

smoothSolver:  Solving for Ux, Initial residual = 0.00524855, Final residual = 0.000317041, No Iterations 4
smoothSolver:  Solving for Uy, Initial residual = 0.00985437, Final residual = 0.000597505, No Iterations 4
smoothSolver:  Solving for Uz, Initial residual = 0.0105314, Final residual = 0.000713621, No Iterations 4
GAMG:  Solving for p, Initial residual = 0.0173439, Final residual = 0.00118933, No Iterations 1
time step continuity errors : sum local = 0.0096116, global = 0.000653464, cumulative = 0.511381
ExecutionTime = 58.16 s  ClockTime = 59 s

Time = 32

smoothSolver:  Solving for Ux, Initial residual = 0.00502375, Final residual = 0.000307432, No Iterations 4
smoothSolver:  Solving for Uy, Initial residual = 0.00942779, Final residual = 0.000578786, No Iterations 4
smoothSolver:  Solving for Uz, Initial residual = 0.0101396, Final residual = 0.000693048, No Iterations 4
GAMG:  Solving for p, Initial residual = 0.0159641, Final residual = 0.000401301, No Iterations 2
time step continuity errors : sum local = 0.00325547, global = 0.000761166, cumulative = 0.512142
ExecutionTime = 60.07 s  ClockTime = 60 s

Time = 33

smoothSolver:  Solving for Ux, Initial residual = 0.00488753, Final residual = 0.000297303, No Iterations 4
smoothSolver:  Solving for Uy, Initial residual = 0.00909141, Final residual = 0.000551928, No Iterations 4
smoothSolver:  Solving for Uz, Initial residual = 0.00958593, Final residual = 0.000652563, No Iterations 4
GAMG:  Solving for p, Initial residual = 0.0164759, Final residual = 0.000893002, No Iterations 1
time step continuity errors : sum local = 0.00695956, global = -0.000121826, cumulative = 0.51202
ExecutionTime = 61.86 s  ClockTime = 62 s

Time = 34

smoothSolver:  Solving for Ux, Initial residual = 0.00463078, Final residual = 0.000287473, No Iterations 4
smoothSolver:  Solving for Uy, Initial residual = 0.00861788, Final residual = 0.000536309, No Iterations 4
smoothSolver:  Solving for Uz, Initial residual = 0.00923566, Final residual = 0.000634848, No Iterations 4
GAMG:  Solving for p, Initial residual = 0.0149918, Final residual = 0.00101384, No Iterations 1
time step continuity errors : sum local = 0.0079212, global = 0.00031677, cumulative = 0.512337
ExecutionTime = 63.64 s  ClockTime = 64 s

Time = 35

smoothSolver:  Solving for Ux, Initial residual = 0.00448012, Final residual = 0.000279957, No Iterations 4
smoothSolver:  Solving for Uy, Initial residual = 0.00826519, Final residual = 0.0005181, No Iterations 4
smoothSolver:  Solving for Uz, Initial residual = 0.00889832, Final residual = 0.000614677, No Iterations 4
GAMG:  Solving for p, Initial residual = 0.0142529, Final residual = 0.0010192, No Iterations 1
time step continuity errors : sum local = 0.00795197, global = -0.000264632, cumulative = 0.512073
ExecutionTime = 65.4 s  ClockTime = 66 s

Time = 36

smoothSolver:  Solving for Ux, Initial residual = 0.00433295, Final residual = 0.000272664, No Iterations 4
smoothSolver:  Solving for Uy, Initial residual = 0.00795696, Final residual = 0.000502248, No Iterations 4
smoothSolver:  Solving for Uz, Initial residual = 0.00858477, Final residual = 0.000595351, No Iterations 4
GAMG:  Solving for p, Initial residual = 0.0136115, Final residual = 0.000965663, No Iterations 1
time step continuity errors : sum local = 0.00751002, global = 0.000510506, cumulative = 0.512583
ExecutionTime = 67.18 s  ClockTime = 68 s

Time = 37

smoothSolver:  Solving for Ux, Initial residual = 0.004209, Final residual = 0.000266467, No Iterations 4
smoothSolver:  Solving for Uy, Initial residual = 0.00767187, Final residual = 0.000487808, No Iterations 4
smoothSolver:  Solving for Uz, Initial residual = 0.00831002, Final residual = 0.000578756, No Iterations 4
GAMG:  Solving for p, Initial residual = 0.012869, Final residual = 0.0010431, No Iterations 1
time step continuity errors : sum local = 0.00814775, global = -0.000520913, cumulative = 0.512062
ExecutionTime = 68.9 s  ClockTime = 69 s

Time = 38

smoothSolver:  Solving for Ux, Initial residual = 0.00409235, Final residual = 0.000260199, No Iterations 4
smoothSolver:  Solving for Uy, Initial residual = 0.00741829, Final residual = 0.000473638, No Iterations 4
smoothSolver:  Solving for Uz, Initial residual = 0.00802551, Final residual = 0.000560085, No Iterations 4
GAMG:  Solving for p, Initial residual = 0.0124662, Final residual = 0.000859938, No Iterations 1
time step continuity errors : sum local = 0.00667683, global = 0.000363326, cumulative = 0.512426
ExecutionTime = 70.71 s  ClockTime = 71 s

Time = 39

smoothSolver:  Solving for Ux, Initial residual = 0.00397158, Final residual = 0.000254191, No Iterations 4
smoothSolver:  Solving for Uy, Initial residual = 0.00717039, Final residual = 0.000461562, No Iterations 4
smoothSolver:  Solving for Uz, Initial residual = 0.00779501, Final residual = 0.000546402, No Iterations 4
GAMG:  Solving for p, Initial residual = 0.0116841, Final residual = 0.00106527, No Iterations 1
time step continuity errors : sum local = 0.0083351, global = -0.000388219, cumulative = 0.512037
ExecutionTime = 72.5 s  ClockTime = 73 s

Time = 40

smoothSolver:  Solving for Ux, Initial residual = 0.00389007, Final residual = 0.000249037, No Iterations 4
smoothSolver:  Solving for Uy, Initial residual = 0.00695589, Final residual = 0.00044754, No Iterations 4
smoothSolver:  Solving for Uz, Initial residual = 0.0075219, Final residual = 0.000526863, No Iterations 4
GAMG:  Solving for p, Initial residual = 0.0115698, Final residual = 0.00078353, No Iterations 1
time step continuity errors : sum local = 0.00605756, global = 0.000115869, cumulative = 0.512153
ExecutionTime = 74.29 s  ClockTime = 75 s

Time = 41

smoothSolver:  Solving for Ux, Initial residual = 0.00376206, Final residual = 0.000242822, No Iterations 4
smoothSolver:  Solving for Uy, Initial residual = 0.00672239, Final residual = 0.000437053, No Iterations 4
smoothSolver:  Solving for Uz, Initial residual = 0.00731654, Final residual = 0.000515045, No Iterations 4
GAMG:  Solving for p, Initial residual = 0.0107783, Final residual = 0.000852848, No Iterations 1
time step continuity errors : sum local = 0.00664788, global = 6.44834e-05, cumulative = 0.512218
ExecutionTime = 76.1 s  ClockTime = 76 s

Time = 42

smoothSolver:  Solving for Ux, Initial residual = 0.00369083, Final residual = 0.000238432, No Iterations 4
smoothSolver:  Solving for Uy, Initial residual = 0.00652684, Final residual = 0.00042521, No Iterations 4
smoothSolver:  Solving for Uz, Initial residual = 0.00709227, Final residual = 0.000499685, No Iterations 4
GAMG:  Solving for p, Initial residual = 0.0104558, Final residual = 0.000722667, No Iterations 1
time step continuity errors : sum local = 0.00561434, global = 7.85027e-05, cumulative = 0.512296
ExecutionTime = 77.92 s  ClockTime = 78 s

Time = 43

smoothSolver:  Solving for Ux, Initial residual = 0.00359063, Final residual = 0.000233104, No Iterations 4
smoothSolver:  Solving for Uy, Initial residual = 0.00633263, Final residual = 0.000415185, No Iterations 4
smoothSolver:  Solving for Uz, Initial residual = 0.00689625, Final residual = 0.000487174, No Iterations 4
GAMG:  Solving for p, Initial residual = 0.00996676, Final residual = 0.000684277, No Iterations 1
time step continuity errors : sum local = 0.00532676, global = 0.000105922, cumulative = 0.512402
ExecutionTime = 79.94 s  ClockTime = 80 s

Time = 44

smoothSolver:  Solving for Ux, Initial residual = 0.00350674, Final residual = 0.000228364, No Iterations 4
smoothSolver:  Solving for Uy, Initial residual = 0.00615664, Final residual = 0.000405691, No Iterations 4
smoothSolver:  Solving for Uz, Initial residual = 0.00671317, Final residual = 0.000475592, No Iterations 4
GAMG:  Solving for p, Initial residual = 0.00952334, Final residual = 0.00067945, No Iterations 1
time step continuity errors : sum local = 0.00531024, global = 0.000110449, cumulative = 0.512513
ExecutionTime = 81.91 s  ClockTime = 82 s

Time = 45

smoothSolver:  Solving for Ux, Initial residual = 0.00343383, Final residual = 0.000224139, No Iterations 4
smoothSolver:  Solving for Uy, Initial residual = 0.0059944, Final residual = 0.000396598, No Iterations 4
smoothSolver:  Solving for Uz, Initial residual = 0.00653859, Final residual = 0.000464095, No Iterations 4
GAMG:  Solving for p, Initial residual = 0.00914769, Final residual = 0.000662246, No Iterations 1
time step continuity errors : sum local = 0.00519106, global = 0.000103693, cumulative = 0.512616
ExecutionTime = 83.71 s  ClockTime = 84 s

Time = 46

smoothSolver:  Solving for Ux, Initial residual = 0.00336375, Final residual = 0.000220029, No Iterations 4
smoothSolver:  Solving for Uy, Initial residual = 0.0058404, Final residual = 0.000387951, No Iterations 4
smoothSolver:  Solving for Uz, Initial residual = 0.00637148, Final residual = 0.000452872, No Iterations 4
GAMG:  Solving for p, Initial residual = 0.00880983, Final residual = 0.000633368, No Iterations 1
time step continuity errors : sum local = 0.00497552, global = 0.000105543, cumulative = 0.512722
ExecutionTime = 85.48 s  ClockTime = 86 s

Time = 47

smoothSolver:  Solving for Ux, Initial residual = 0.00329367, Final residual = 0.000215919, No Iterations 4
smoothSolver:  Solving for Uy, Initial residual = 0.00569391, Final residual = 0.000379786, No Iterations 4
smoothSolver:  Solving for Uz, Initial residual = 0.00621285, Final residual = 0.000442254, No Iterations 4
GAMG:  Solving for p, Initial residual = 0.00848186, Final residual = 0.000611396, No Iterations 1
time step continuity errors : sum local = 0.00481542, global = 8.99703e-05, cumulative = 0.512812
ExecutionTime = 87.28 s  ClockTime = 88 s

Time = 48

smoothSolver:  Solving for Ux, Initial residual = 0.00322671, Final residual = 0.000211941, No Iterations 4
smoothSolver:  Solving for Uy, Initial residual = 0.00555611, Final residual = 0.000372062, No Iterations 4
smoothSolver:  Solving for Uz, Initial residual = 0.00606226, Final residual = 0.000432162, No Iterations 4
GAMG:  Solving for p, Initial residual = 0.00817168, Final residual = 0.000595784, No Iterations 1
time step continuity errors : sum local = 0.00470683, global = 9.78404e-05, cumulative = 0.51291
ExecutionTime = 89.41 s  ClockTime = 90 s

Time = 49

smoothSolver:  Solving for Ux, Initial residual = 0.0031641, Final residual = 0.000208134, No Iterations 4
smoothSolver:  Solving for Uy, Initial residual = 0.00542669, Final residual = 0.000364709, No Iterations 4
smoothSolver:  Solving for Uz, Initial residual = 0.00591871, Final residual = 0.000422476, No Iterations 4
GAMG:  Solving for p, Initial residual = 0.00788264, Final residual = 0.000580809, No Iterations 1
time step continuity errors : sum local = 0.00460347, global = 7.44852e-05, cumulative = 0.512984
ExecutionTime = 91.35 s  ClockTime = 92 s

Time = 50

smoothSolver:  Solving for Ux, Initial residual = 0.00310445, Final residual = 0.000204474, No Iterations 4
smoothSolver:  Solving for Uy, Initial residual = 0.00530422, Final residual = 0.000357677, No Iterations 4
smoothSolver:  Solving for Uz, Initial residual = 0.00578143, Final residual = 0.000413128, No Iterations 4
GAMG:  Solving for p, Initial residual = 0.00761344, Final residual = 0.000563431, No Iterations 1
time step continuity errors : sum local = 0.00447968, global = 9.31349e-05, cumulative = 0.513077
ExecutionTime = 94.52 s  ClockTime = 95 s

Time = 51

smoothSolver:  Solving for Ux, Initial residual = 0.00304702, Final residual = 0.000200907, No Iterations 4
smoothSolver:  Solving for Uy, Initial residual = 0.00518763, Final residual = 0.000350917, No Iterations 4
smoothSolver:  Solving for Uz, Initial residual = 0.00565023, Final residual = 0.000404166, No Iterations 4
GAMG:  Solving for p, Initial residual = 0.00735743, Final residual = 0.000546434, No Iterations 1
time step continuity errors : sum local = 0.00435889, global = 6.34468e-05, cumulative = 0.513141
ExecutionTime = 96.32 s  ClockTime = 97 s

Time = 52

smoothSolver:  Solving for Ux, Initial residual = 0.00299108, Final residual = 0.000197442, No Iterations 4
smoothSolver:  Solving for Uy, Initial residual = 0.00507733, Final residual = 0.000344406, No Iterations 4
smoothSolver:  Solving for Uz, Initial residual = 0.00552438, Final residual = 0.000395538, No Iterations 4
GAMG:  Solving for p, Initial residual = 0.00711666, Final residual = 0.000529631, No Iterations 1
time step continuity errors : sum local = 0.00423829, global = 9.61798e-05, cumulative = 0.513237
ExecutionTime = 98.06 s  ClockTime = 99 s

Time = 53

smoothSolver:  Solving for Ux, Initial residual = 0.00293705, Final residual = 0.000194061, No Iterations 4
smoothSolver:  Solving for Uy, Initial residual = 0.00497215, Final residual = 0.000338174, No Iterations 4
smoothSolver:  Solving for Uz, Initial residual = 0.00540389, Final residual = 0.000387269, No Iterations 4
GAMG:  Solving for p, Initial residual = 0.00688671, Final residual = 0.000514607, No Iterations 1
time step continuity errors : sum local = 0.00413228, global = 5.76875e-05, cumulative = 0.513295
ExecutionTime = 99.84 s  ClockTime = 101 s

Time = 54

smoothSolver:  Solving for Ux, Initial residual = 0.00288485, Final residual = 0.00019079, No Iterations 4
smoothSolver:  Solving for Uy, Initial residual = 0.00487301, Final residual = 0.000332198, No Iterations 4
smoothSolver:  Solving for Uz, Initial residual = 0.00528755, Final residual = 0.000379255, No Iterations 4
GAMG:  Solving for p, Initial residual = 0.00667206, Final residual = 0.000499037, No Iterations 1
time step continuity errors : sum local = 0.00401989, global = 0.000104307, cumulative = 0.513399
ExecutionTime = 101.6 s  ClockTime = 103 s

Time = 55

smoothSolver:  Solving for Ux, Initial residual = 0.00283411, Final residual = 0.000187566, No Iterations 4
smoothSolver:  Solving for Uy, Initial residual = 0.00477768, Final residual = 0.00032646, No Iterations 4
smoothSolver:  Solving for Uz, Initial residual = 0.00517579, Final residual = 0.000371559, No Iterations 4
GAMG:  Solving for p, Initial residual = 0.00646612, Final residual = 0.000485401, No Iterations 1
time step continuity errors : sum local = 0.00392344, global = 5.43903e-05, cumulative = 0.513453
ExecutionTime = 103.3 s  ClockTime = 104 s

Time = 56

smoothSolver:  Solving for Ux, Initial residual = 0.00278498, Final residual = 0.000184446, No Iterations 4
smoothSolver:  Solving for Uy, Initial residual = 0.00468751, Final residual = 0.000320958, No Iterations 4
smoothSolver:  Solving for Uz, Initial residual = 0.00506763, Final residual = 0.000364081, No Iterations 4
GAMG:  Solving for p, Initial residual = 0.00627423, Final residual = 0.00047103, No Iterations 1
time step continuity errors : sum local = 0.00381885, global = 0.00011244, cumulative = 0.513566
ExecutionTime = 105.07 s  ClockTime = 106 s

Time = 57

smoothSolver:  Solving for Ux, Initial residual = 0.00273671, Final residual = 0.000181359, No Iterations 4
smoothSolver:  Solving for Uy, Initial residual = 0.00460043, Final residual = 0.000315651, No Iterations 4
smoothSolver:  Solving for Uz, Initial residual = 0.00496347, Final residual = 0.000356893, No Iterations 4
GAMG:  Solving for p, Initial residual = 0.00608898, Final residual = 0.000459424, No Iterations 1
time step continuity errors : sum local = 0.00373738, global = 5.23607e-05, cumulative = 0.513618
ExecutionTime = 106.84 s  ClockTime = 108 s

Time = 58

smoothSolver:  Solving for Ux, Initial residual = 0.00269026, Final residual = 0.000178404, No Iterations 4
smoothSolver:  Solving for Uy, Initial residual = 0.00451843, Final residual = 0.000310564, No Iterations 4
smoothSolver:  Solving for Uz, Initial residual = 0.00486235, Final residual = 0.000349877, No Iterations 4
GAMG:  Solving for p, Initial residual = 0.00591657, Final residual = 0.000446308, No Iterations 1
time step continuity errors : sum local = 0.0036414, global = 0.000116744, cumulative = 0.513735
ExecutionTime = 108.64 s  ClockTime = 110 s

Time = 59

smoothSolver:  Solving for Ux, Initial residual = 0.00264446, Final residual = 0.000175451, No Iterations 4
smoothSolver:  Solving for Uy, Initial residual = 0.00443835, Final residual = 0.000305632, No Iterations 4
smoothSolver:  Solving for Uz, Initial residual = 0.00476482, Final residual = 0.000343132, No Iterations 4
GAMG:  Solving for p, Initial residual = 0.00574913, Final residual = 0.000436241, No Iterations 1
time step continuity errors : sum local = 0.00357116, global = 5.02285e-05, cumulative = 0.513785
ExecutionTime = 110.42 s  ClockTime = 111 s

Time = 60

smoothSolver:  Solving for Ux, Initial residual = 0.00260048, Final residual = 0.000172626, No Iterations 4
smoothSolver:  Solving for Uy, Initial residual = 0.00436267, Final residual = 0.000300901, No Iterations 4
smoothSolver:  Solving for Uz, Initial residual = 0.00467011, Final residual = 0.000336536, No Iterations 4
GAMG:  Solving for p, Initial residual = 0.0055931, Final residual = 0.000423907, No Iterations 1
time step continuity errors : sum local = 0.00348015, global = 0.000116483, cumulative = 0.513901
ExecutionTime = 112.21 s  ClockTime = 113 s

Time = 61

smoothSolver:  Solving for Ux, Initial residual = 0.00255676, Final residual = 0.000169803, No Iterations 4
smoothSolver:  Solving for Uy, Initial residual = 0.00428825, Final residual = 0.000296285, No Iterations 4
smoothSolver:  Solving for Uz, Initial residual = 0.0045788, Final residual = 0.000330198, No Iterations 4
GAMG:  Solving for p, Initial residual = 0.00544096, Final residual = 0.000414964, No Iterations 1
time step continuity errors : sum local = 0.00341789, global = 4.84547e-05, cumulative = 0.51395
ExecutionTime = 113.95 s  ClockTime = 115 s

Time = 62

smoothSolver:  Solving for Ux, Initial residual = 0.00251502, Final residual = 0.000167128, No Iterations 4
smoothSolver:  Solving for Uy, Initial residual = 0.00421786, Final residual = 0.000291833, No Iterations 4
smoothSolver:  Solving for Uz, Initial residual = 0.00448999, Final residual = 0.000323993, No Iterations 4
GAMG:  Solving for p, Initial residual = 0.00529949, Final residual = 0.000403337, No Iterations 1
time step continuity errors : sum local = 0.00333144, global = 0.000112396, cumulative = 0.514062
ExecutionTime = 115.75 s  ClockTime = 117 s

Time = 63

smoothSolver:  Solving for Ux, Initial residual = 0.00247315, Final residual = 0.000164424, No Iterations 4
smoothSolver:  Solving for Uy, Initial residual = 0.00414801, Final residual = 0.000287454, No Iterations 4
smoothSolver:  Solving for Uz, Initial residual = 0.00440421, Final residual = 0.000318016, No Iterations 4
GAMG:  Solving for p, Initial residual = 0.00516114, Final residual = 0.000395302, No Iterations 1
time step continuity errors : sum local = 0.00327556, global = 4.80047e-05, cumulative = 0.51411
ExecutionTime = 117.54 s  ClockTime = 118 s

Time = 64

smoothSolver:  Solving for Ux, Initial residual = 0.00243342, Final residual = 0.000161877, No Iterations 4
smoothSolver:  Solving for Uy, Initial residual = 0.00408174, Final residual = 0.00028321, No Iterations 4
smoothSolver:  Solving for Uz, Initial residual = 0.00432068, Final residual = 0.000312158, No Iterations 4
GAMG:  Solving for p, Initial residual = 0.0050324, Final residual = 0.000384357, No Iterations 1
time step continuity errors : sum local = 0.00319365, global = 0.000106093, cumulative = 0.514216
ExecutionTime = 119.31 s  ClockTime = 120 s

Time = 65

smoothSolver:  Solving for Ux, Initial residual = 0.00239336, Final residual = 0.00015931, No Iterations 4
smoothSolver:  Solving for Uy, Initial residual = 0.00401568, Final residual = 0.000279031, No Iterations 4
smoothSolver:  Solving for Uz, Initial residual = 0.00423988, Final residual = 0.000306515, No Iterations 4
GAMG:  Solving for p, Initial residual = 0.00490647, Final residual = 0.000377008, No Iterations 1
time step continuity errors : sum local = 0.00314239, global = 4.93451e-05, cumulative = 0.514266
ExecutionTime = 121.07 s  ClockTime = 122 s

Time = 66

smoothSolver:  Solving for Ux, Initial residual = 0.00235532, Final residual = 0.00015688, No Iterations 4
smoothSolver:  Solving for Uy, Initial residual = 0.00395272, Final residual = 0.000274977, No Iterations 4
smoothSolver:  Solving for Uz, Initial residual = 0.00416118, Final residual = 0.000300979, No Iterations 4
GAMG:  Solving for p, Initial residual = 0.00478872, Final residual = 0.000366861, No Iterations 1
time step continuity errors : sum local = 0.00306611, global = 9.9187e-05, cumulative = 0.514365
ExecutionTime = 122.87 s  ClockTime = 124 s

Time = 67

smoothSolver:  Solving for Ux, Initial residual = 0.00231687, Final residual = 0.000154424, No Iterations 4
smoothSolver:  Solving for Uy, Initial residual = 0.00388976, Final residual = 0.000270982, No Iterations 4
smoothSolver:  Solving for Uz, Initial residual = 0.00408484, Final residual = 0.000295643, No Iterations 4
GAMG:  Solving for p, Initial residual = 0.00467353, Final residual = 0.00036003, No Iterations 1
time step continuity errors : sum local = 0.00301811, global = 5.22513e-05, cumulative = 0.514417
ExecutionTime = 124.58 s  ClockTime = 126 s

Time = 68

smoothSolver:  Solving for Ux, Initial residual = 0.00228036, Final residual = 0.000152098, No Iterations 4
smoothSolver:  Solving for Uy, Initial residual = 0.00382961, Final residual = 0.000267086, No Iterations 4
smoothSolver:  Solving for Uz, Initial residual = 0.00401049, Final residual = 0.000290416, No Iterations 4
GAMG:  Solving for p, Initial residual = 0.0045653, Final residual = 0.000350736, No Iterations 1
time step continuity errors : sum local = 0.00294803, global = 9.27758e-05, cumulative = 0.51451
ExecutionTime = 126.34 s  ClockTime = 127 s

Time = 69

smoothSolver:  Solving for Ux, Initial residual = 0.00224346, Final residual = 0.000149753, No Iterations 4
smoothSolver:  Solving for Uy, Initial residual = 0.00376957, Final residual = 0.000263241, No Iterations 4
smoothSolver:  Solving for Uz, Initial residual = 0.00393839, Final residual = 0.000285372, No Iterations 4
GAMG:  Solving for p, Initial residual = 0.00445948, Final residual = 0.000344283, No Iterations 1
time step continuity errors : sum local = 0.0029022, global = 5.59861e-05, cumulative = 0.514566
ExecutionTime = 128.36 s  ClockTime = 129 s

Time = 70

smoothSolver:  Solving for Ux, Initial residual = 0.00220834, Final residual = 0.000147533, No Iterations 4
smoothSolver:  Solving for Uy, Initial residual = 0.0037122, Final residual = 0.000259492, No Iterations 4
smoothSolver:  Solving for Uz, Initial residual = 0.00386804, Final residual = 0.00028044, No Iterations 4
GAMG:  Solving for p, Initial residual = 0.00435943, Final residual = 0.000335826, No Iterations 1
time step continuity errors : sum local = 0.00283831, global = 8.73072e-05, cumulative = 0.514653
ExecutionTime = 130.04 s  ClockTime = 131 s

Time = 71

smoothSolver:  Solving for Ux, Initial residual = 0.00217303, Final residual = 0.00014531, No Iterations 4
smoothSolver:  Solving for Uy, Initial residual = 0.00365507, Final residual = 0.00025581, No Iterations 4
smoothSolver:  Solving for Uz, Initial residual = 0.00379977, Final residual = 0.00027566, No Iterations 4
GAMG:  Solving for p, Initial residual = 0.0042617, Final residual = 0.000329678, No Iterations 1
time step continuity errors : sum local = 0.00279412, global = 5.94752e-05, cumulative = 0.514713
ExecutionTime = 131.93 s  ClockTime = 133 s

Time = 72

smoothSolver:  Solving for Ux, Initial residual = 0.00213929, Final residual = 0.000143185, No Iterations 4
smoothSolver:  Solving for Uy, Initial residual = 0.00359999, Final residual = 0.000252209, No Iterations 4
smoothSolver:  Solving for Uz, Initial residual = 0.00373324, Final residual = 0.000270978, No Iterations 4
GAMG:  Solving for p, Initial residual = 0.00416889, Final residual = 0.000322003, No Iterations 1
time step continuity errors : sum local = 0.00273607, global = 8.29768e-05, cumulative = 0.514796
ExecutionTime = 133.51 s  ClockTime = 134 s

Time = 73

smoothSolver:  Solving for Ux, Initial residual = 0.00210555, Final residual = 0.000141061, No Iterations 4
smoothSolver:  Solving for Uy, Initial residual = 0.00354526, Final residual = 0.000248667, No Iterations 4
smoothSolver:  Solving for Uz, Initial residual = 0.0036685, Final residual = 0.000266432, No Iterations 4
GAMG:  Solving for p, Initial residual = 0.00407834, Final residual = 0.000316102, No Iterations 1
time step continuity errors : sum local = 0.00269311, global = 6.24225e-05, cumulative = 0.514858
ExecutionTime = 134.99 s  ClockTime = 136 s

Time = 74

smoothSolver:  Solving for Ux, Initial residual = 0.0020731, Final residual = 0.000139028, No Iterations 4
smoothSolver:  Solving for Uy, Initial residual = 0.00349248, Final residual = 0.000245208, No Iterations 4
smoothSolver:  Solving for Uz, Initial residual = 0.00360541, Final residual = 0.000261987, No Iterations 4
GAMG:  Solving for p, Initial residual = 0.00399211, Final residual = 0.000309074, No Iterations 1
time step continuity errors : sum local = 0.00263982, global = 7.93906e-05, cumulative = 0.514938
ExecutionTime = 136.54 s  ClockTime = 137 s

Time = 75

smoothSolver:  Solving for Ux, Initial residual = 0.00204081, Final residual = 0.000137008, No Iterations 4
smoothSolver:  Solving for Uy, Initial residual = 0.00344046, Final residual = 0.000241803, No Iterations 4
smoothSolver:  Solving for Uz, Initial residual = 0.00354407, Final residual = 0.000257669, No Iterations 4
GAMG:  Solving for p, Initial residual = 0.00390825, Final residual = 0.000303445, No Iterations 1
time step continuity errors : sum local = 0.00259842, global = 6.46796e-05, cumulative = 0.515002
ExecutionTime = 138.09 s  ClockTime = 139 s

Time = 76

smoothSolver:  Solving for Ux, Initial residual = 0.00200978, Final residual = 0.00013507, No Iterations 4
smoothSolver:  Solving for Uy, Initial residual = 0.00339007, Final residual = 0.000238464, No Iterations 4
smoothSolver:  Solving for Uz, Initial residual = 0.0034843, Final residual = 0.000253443, No Iterations 4
GAMG:  Solving for p, Initial residual = 0.00382795, Final residual = 0.000297013, No Iterations 1
time step continuity errors : sum local = 0.00254957, global = 7.64908e-05, cumulative = 0.515079
ExecutionTime = 139.62 s  ClockTime = 141 s

Time = 77

smoothSolver:  Solving for Ux, Initial residual = 0.00197911, Final residual = 0.000133155, No Iterations 4
smoothSolver:  Solving for Uy, Initial residual = 0.00334048, Final residual = 0.000235193, No Iterations 4
smoothSolver:  Solving for Uz, Initial residual = 0.00342605, Final residual = 0.000249329, No Iterations 4
GAMG:  Solving for p, Initial residual = 0.00375018, Final residual = 0.00029164, No Iterations 1
time step continuity errors : sum local = 0.00250966, global = 6.62822e-05, cumulative = 0.515145
ExecutionTime = 141.17 s  ClockTime = 142 s

Time = 78

smoothSolver:  Solving for Ux, Initial residual = 0.00194959, Final residual = 0.000131309, No Iterations 4
smoothSolver:  Solving for Uy, Initial residual = 0.00329215, Final residual = 0.000232007, No Iterations 4
smoothSolver:  Solving for Uz, Initial residual = 0.00336924, Final residual = 0.000245315, No Iterations 4
GAMG:  Solving for p, Initial residual = 0.00367585, Final residual = 0.000285712, No Iterations 1
time step continuity errors : sum local = 0.0024645, global = 7.42441e-05, cumulative = 0.515219
ExecutionTime = 142.67 s  ClockTime = 144 s

Time = 79

smoothSolver:  Solving for Ux, Initial residual = 0.00192052, Final residual = 0.000129493, No Iterations 4
smoothSolver:  Solving for Uy, Initial residual = 0.0032446, Final residual = 0.000228891, No Iterations 4
smoothSolver:  Solving for Uz, Initial residual = 0.00331391, Final residual = 0.00024141, No Iterations 4
GAMG:  Solving for p, Initial residual = 0.00360375, Final residual = 0.000280592, No Iterations 1
time step continuity errors : sum local = 0.00242612, global = 6.74012e-05, cumulative = 0.515287
ExecutionTime = 144.12 s  ClockTime = 145 s

Time = 80

smoothSolver:  Solving for Ux, Initial residual = 0.00189243, Final residual = 0.000127735, No Iterations 4
smoothSolver:  Solving for Uy, Initial residual = 0.00319847, Final residual = 0.000225854, No Iterations 4
smoothSolver:  Solving for Uz, Initial residual = 0.00325994, Final residual = 0.000237595, No Iterations 4
GAMG:  Solving for p, Initial residual = 0.00353445, Final residual = 0.000275153, No Iterations 1
time step continuity errors : sum local = 0.00238459, global = 7.26532e-05, cumulative = 0.515359
ExecutionTime = 145.65 s  ClockTime = 147 s

Time = 81

smoothSolver:  Solving for Ux, Initial residual = 0.00186483, Final residual = 0.000126008, No Iterations 4
smoothSolver:  Solving for Uy, Initial residual = 0.00315311, Final residual = 0.000222897, No Iterations 4
smoothSolver:  Solving for Uz, Initial residual = 0.00320734, Final residual = 0.000233876, No Iterations 4
GAMG:  Solving for p, Initial residual = 0.00346719, Final residual = 0.00027033, No Iterations 1
time step continuity errors : sum local = 0.00234819, global = 6.82339e-05, cumulative = 0.515428
ExecutionTime = 147.13 s  ClockTime = 148 s

Time = 82

smoothSolver:  Solving for Ux, Initial residual = 0.0018382, Final residual = 0.000124339, No Iterations 4
smoothSolver:  Solving for Uy, Initial residual = 0.00310912, Final residual = 0.000220007, No Iterations 4
smoothSolver:  Solving for Uz, Initial residual = 0.00315605, Final residual = 0.00023024, No Iterations 4
GAMG:  Solving for p, Initial residual = 0.00340234, Final residual = 0.000265353, No Iterations 1
time step continuity errors : sum local = 0.00231013, global = 7.16228e-05, cumulative = 0.515499
ExecutionTime = 148.65 s  ClockTime = 150 s

Time = 83

smoothSolver:  Solving for Ux, Initial residual = 0.00181222, Final residual = 0.000122711, No Iterations 4
smoothSolver:  Solving for Uy, Initial residual = 0.003066, Final residual = 0.000217192, No Iterations 4
smoothSolver:  Solving for Uz, Initial residual = 0.00310605, Final residual = 0.000226694, No Iterations 4
GAMG:  Solving for p, Initial residual = 0.00333952, Final residual = 0.000260855, No Iterations 1
time step continuity errors : sum local = 0.00227603, global = 6.88927e-05, cumulative = 0.515568
ExecutionTime = 150.17 s  ClockTime = 151 s

Time = 84

smoothSolver:  Solving for Ux, Initial residual = 0.00178709, Final residual = 0.000121134, No Iterations 4
smoothSolver:  Solving for Uy, Initial residual = 0.00302417, Final residual = 0.000214445, No Iterations 4
smoothSolver:  Solving for Uz, Initial residual = 0.0030573, Final residual = 0.000223231, No Iterations 4
GAMG:  Solving for p, Initial residual = 0.00327903, Final residual = 0.000256298, No Iterations 1
time step continuity errors : sum local = 0.00224112, global = 7.10441e-05, cumulative = 0.515639
ExecutionTime = 151.68 s  ClockTime = 153 s

Time = 85

smoothSolver:  Solving for Ux, Initial residual = 0.00176264, Final residual = 0.000119596, No Iterations 4
smoothSolver:  Solving for Uy, Initial residual = 0.00298333, Final residual = 0.000211762, No Iterations 4
smoothSolver:  Solving for Uz, Initial residual = 0.00300975, Final residual = 0.000219847, No Iterations 4
GAMG:  Solving for p, Initial residual = 0.00322054, Final residual = 0.000252093, No Iterations 1
time step continuity errors : sum local = 0.00220908, global = 6.9433e-05, cumulative = 0.515709
ExecutionTime = 153.13 s  ClockTime = 154 s

Time = 86

smoothSolver:  Solving for Ux, Initial residual = 0.00173903, Final residual = 0.000118106, No Iterations 4
smoothSolver:  Solving for Uy, Initial residual = 0.0029434, Final residual = 0.000209141, No Iterations 4
smoothSolver:  Solving for Uz, Initial residual = 0.00296336, Final residual = 0.000216536, No Iterations 4
GAMG:  Solving for p, Initial residual = 0.00316419, Final residual = 0.000247917, No Iterations 1
time step continuity errors : sum local = 0.00217705, global = 7.14909e-05, cumulative = 0.51578
ExecutionTime = 154.64 s  ClockTime = 156 s

Time = 87

smoothSolver:  Solving for Ux, Initial residual = 0.00171605, Final residual = 0.000116651, No Iterations 4
smoothSolver:  Solving for Uy, Initial residual = 0.00290453, Final residual = 0.000206595, No Iterations 4
smoothSolver:  Solving for Uz, Initial residual = 0.00291805, Final residual = 0.000213301, No Iterations 4
GAMG:  Solving for p, Initial residual = 0.00310969, Final residual = 0.000244015, No Iterations 1
time step continuity errors : sum local = 0.00214723, global = 7.01033e-05, cumulative = 0.51585
ExecutionTime = 156.28 s  ClockTime = 157 s

Time = 88

smoothSolver:  Solving for Ux, Initial residual = 0.00169383, Final residual = 0.000115242, No Iterations 4
smoothSolver:  Solving for Uy, Initial residual = 0.00286676, Final residual = 0.000204116, No Iterations 4
smoothSolver:  Solving for Uz, Initial residual = 0.00287384, Final residual = 0.000210138, No Iterations 4
GAMG:  Solving for p, Initial residual = 0.003057, Final residual = 0.000240134, No Iterations 1
time step continuity errors : sum local = 0.00211737, global = 7.14001e-05, cumulative = 0.515922
ExecutionTime = 157.87 s  ClockTime = 159 s

Time = 89

smoothSolver:  Solving for Ux, Initial residual = 0.00167226, Final residual = 0.000113871, No Iterations 4
smoothSolver:  Solving for Uy, Initial residual = 0.0028299, Final residual = 0.000201697, No Iterations 4
smoothSolver:  Solving for Uz, Initial residual = 0.00283068, Final residual = 0.000207043, No Iterations 4
GAMG:  Solving for p, Initial residual = 0.00300587, Final residual = 0.000236517, No Iterations 1
time step continuity errors : sum local = 0.00208966, global = 7.05952e-05, cumulative = 0.515992
ExecutionTime = 159.42 s  ClockTime = 160 s

Time = 90

smoothSolver:  Solving for Ux, Initial residual = 0.00165144, Final residual = 0.000112542, No Iterations 4
smoothSolver:  Solving for Uy, Initial residual = 0.00279401, Final residual = 0.000199342, No Iterations 4
smoothSolver:  Solving for Uz, Initial residual = 0.00278849, Final residual = 0.000204017, No Iterations 4
GAMG:  Solving for p, Initial residual = 0.00295635, Final residual = 0.000232936, No Iterations 1
time step continuity errors : sum local = 0.00206207, global = 7.13233e-05, cumulative = 0.516063
ExecutionTime = 160.94 s  ClockTime = 162 s

Time = 91

smoothSolver:  Solving for Ux, Initial residual = 0.00163122, Final residual = 0.000111249, No Iterations 4
smoothSolver:  Solving for Uy, Initial residual = 0.00275909, Final residual = 0.000197049, No Iterations 4
smoothSolver:  Solving for Uz, Initial residual = 0.00274725, Final residual = 0.000201063, No Iterations 4
GAMG:  Solving for p, Initial residual = 0.00290831, Final residual = 0.000229538, No Iterations 1
time step continuity errors : sum local = 0.00203593, global = 7.07879e-05, cumulative = 0.516134
ExecutionTime = 162.46 s  ClockTime = 163 s

Time = 92

smoothSolver:  Solving for Ux, Initial residual = 0.00161168, Final residual = 0.000109998, No Iterations 4
smoothSolver:  Solving for Uy, Initial residual = 0.00272509, Final residual = 0.000194807, No Iterations 4
smoothSolver:  Solving for Uz, Initial residual = 0.00270698, Final residual = 0.000198175, No Iterations 4
GAMG:  Solving for p, Initial residual = 0.00286185, Final residual = 0.000226201, No Iterations 1
time step continuity errors : sum local = 0.00201015, global = 7.11555e-05, cumulative = 0.516205
ExecutionTime = 164 s  ClockTime = 165 s

Time = 93

smoothSolver:  Solving for Ux, Initial residual = 0.00159278, Final residual = 0.000108779, No Iterations 4
smoothSolver:  Solving for Uy, Initial residual = 0.00269189, Final residual = 0.000192614, No Iterations 4
smoothSolver:  Solving for Uz, Initial residual = 0.00266768, Final residual = 0.00019535, No Iterations 4
GAMG:  Solving for p, Initial residual = 0.0028166, Final residual = 0.000223015, No Iterations 1
time step continuity errors : sum local = 0.00198557, global = 7.07905e-05, cumulative = 0.516276
ExecutionTime = 165.55 s  ClockTime = 167 s

Time = 94

smoothSolver:  Solving for Ux, Initial residual = 0.00157447, Final residual = 0.000107597, No Iterations 4
smoothSolver:  Solving for Uy, Initial residual = 0.0026594, Final residual = 0.000190466, No Iterations 4
smoothSolver:  Solving for Uz, Initial residual = 0.00262928, Final residual = 0.000192589, No Iterations 4
GAMG:  Solving for p, Initial residual = 0.00277254, Final residual = 0.000219915, No Iterations 1
time step continuity errors : sum local = 0.0019616, global = 7.09663e-05, cumulative = 0.516347
ExecutionTime = 167.19 s  ClockTime = 168 s

Time = 95

smoothSolver:  Solving for Ux, Initial residual = 0.00155668, Final residual = 0.000106448, No Iterations 4
smoothSolver:  Solving for Uy, Initial residual = 0.00262766, Final residual = 0.000188359, No Iterations 4
smoothSolver:  Solving for Uz, Initial residual = 0.00259177, Final residual = 0.000189888, No Iterations 4
GAMG:  Solving for p, Initial residual = 0.0027297, Final residual = 0.000216944, No Iterations 1
time step continuity errors : sum local = 0.00193862, global = 7.07422e-05, cumulative = 0.516418
ExecutionTime = 169.12 s  ClockTime = 170 s

Time = 96

smoothSolver:  Solving for Ux, Initial residual = 0.00153944, Final residual = 0.00010533, No Iterations 4
smoothSolver:  Solving for Uy, Initial residual = 0.00259678, Final residual = 0.000186303, No Iterations 4
smoothSolver:  Solving for Uz, Initial residual = 0.00255506, Final residual = 0.000187246, No Iterations 4
GAMG:  Solving for p, Initial residual = 0.0026881, Final residual = 0.000214058, No Iterations 1
time step continuity errors : sum local = 0.00191626, global = 7.08416e-05, cumulative = 0.516489
ExecutionTime = 170.95 s  ClockTime = 172 s

Time = 97

smoothSolver:  Solving for Ux, Initial residual = 0.00152271, Final residual = 0.000104244, No Iterations 4
smoothSolver:  Solving for Uy, Initial residual = 0.00256675, Final residual = 0.000184286, No Iterations 4
smoothSolver:  Solving for Uz, Initial residual = 0.00251913, Final residual = 0.00018466, No Iterations 4
GAMG:  Solving for p, Initial residual = 0.00264756, Final residual = 0.000211287, No Iterations 1
time step continuity errors : sum local = 0.0018948, global = 7.07333e-05, cumulative = 0.516559
ExecutionTime = 173.08 s  ClockTime = 174 s

Time = 98

smoothSolver:  Solving for Ux, Initial residual = 0.00150645, Final residual = 0.000103186, No Iterations 4
smoothSolver:  Solving for Uy, Initial residual = 0.0025374, Final residual = 0.000182309, No Iterations 4
smoothSolver:  Solving for Uz, Initial residual = 0.00248399, Final residual = 0.000182127, No Iterations 4
GAMG:  Solving for p, Initial residual = 0.00260809, Final residual = 0.000208612, No Iterations 1
time step continuity errors : sum local = 0.00187407, global = 7.08103e-05, cumulative = 0.51663
ExecutionTime = 175.28 s  ClockTime = 176 s

Time = 99

smoothSolver:  Solving for Ux, Initial residual = 0.00149069, Final residual = 0.000102158, No Iterations 4
smoothSolver:  Solving for Uy, Initial residual = 0.0025086, Final residual = 0.000180378, No Iterations 4
smoothSolver:  Solving for Uz, Initial residual = 0.00244961, Final residual = 0.000179646, No Iterations 4
GAMG:  Solving for p, Initial residual = 0.00256963, Final residual = 0.000206017, No Iterations 1
time step continuity errors : sum local = 0.00185394, global = 7.09634e-05, cumulative = 0.516701
ExecutionTime = 177.06 s  ClockTime = 178 s

Time = 100

smoothSolver:  Solving for Ux, Initial residual = 0.0014754, Final residual = 0.000101156, No Iterations 4
smoothSolver:  Solving for Uy, Initial residual = 0.00248026, Final residual = 0.000178479, No Iterations 4
smoothSolver:  Solving for Uz, Initial residual = 0.00241595, Final residual = 0.000177216, No Iterations 4
GAMG:  Solving for p, Initial residual = 0.00253212, Final residual = 0.000203607, No Iterations 1
time step continuity errors : sum local = 0.00183536, global = 7.10132e-05, cumulative = 0.516772
ExecutionTime = 180.24 s  ClockTime = 182 s

Time = 101

smoothSolver:  Solving for Ux, Initial residual = 0.00146061, Final residual = 0.000100183, No Iterations 4
smoothSolver:  Solving for Uy, Initial residual = 0.00245254, Final residual = 0.000176605, No Iterations 4
smoothSolver:  Solving for Uz, Initial residual = 0.00238297, Final residual = 0.000174835, No Iterations 4
GAMG:  Solving for p, Initial residual = 0.00249562, Final residual = 0.000201181, No Iterations 1
time step continuity errors : sum local = 0.00181653, global = 7.10918e-05, cumulative = 0.516843
ExecutionTime = 182.07 s  ClockTime = 184 s

Time = 102

smoothSolver:  Solving for Ux, Initial residual = 0.00144621, Final residual = 9.92405e-05, No Iterations 4
smoothSolver:  Solving for Uy, Initial residual = 0.0024254, Final residual = 0.000174759, No Iterations 4
smoothSolver:  Solving for Uz, Initial residual = 0.00235067, Final residual = 0.000172502, No Iterations 4
GAMG:  Solving for p, Initial residual = 0.00246007, Final residual = 0.000198813, No Iterations 1
time step continuity errors : sum local = 0.00179811, global = 7.11442e-05, cumulative = 0.516914
ExecutionTime = 183.91 s  ClockTime = 185 s

Time = 103

smoothSolver:  Solving for Ux, Initial residual = 0.00143226, Final residual = 9.83223e-05, No Iterations 4
smoothSolver:  Solving for Uy, Initial residual = 0.0023989, Final residual = 0.000172939, No Iterations 4
smoothSolver:  Solving for Uz, Initial residual = 0.00231908, Final residual = 0.000170216, No Iterations 4
GAMG:  Solving for p, Initial residual = 0.00242543, Final residual = 0.000196544, No Iterations 1
time step continuity errors : sum local = 0.00178047, global = 7.11722e-05, cumulative = 0.516986
ExecutionTime = 185.65 s  ClockTime = 187 s

Time = 104

smoothSolver:  Solving for Ux, Initial residual = 0.00141866, Final residual = 9.74227e-05, No Iterations 4
smoothSolver:  Solving for Uy, Initial residual = 0.00237283, Final residual = 0.00017114, No Iterations 4
smoothSolver:  Solving for Uz, Initial residual = 0.00228815, Final residual = 0.000167974, No Iterations 4
GAMG:  Solving for p, Initial residual = 0.00239166, Final residual = 0.000194374, No Iterations 1
time step continuity errors : sum local = 0.00176362, global = 7.11804e-05, cumulative = 0.517057
ExecutionTime = 187.46 s  ClockTime = 189 s

Time = 105

smoothSolver:  Solving for Ux, Initial residual = 0.00140544, Final residual = 9.6548e-05, No Iterations 4
smoothSolver:  Solving for Uy, Initial residual = 0.0023472, Final residual = 0.00016936, No Iterations 4
smoothSolver:  Solving for Uz, Initial residual = 0.00225785, Final residual = 0.000165775, No Iterations 4
GAMG:  Solving for p, Initial residual = 0.00235884, Final residual = 0.000192275, No Iterations 1
time step continuity errors : sum local = 0.00174731, global = 7.11497e-05, cumulative = 0.517128
ExecutionTime = 189.27 s  ClockTime = 191 s

Time = 106

smoothSolver:  Solving for Ux, Initial residual = 0.00139258, Final residual = 9.56961e-05, No Iterations 4
smoothSolver:  Solving for Uy, Initial residual = 0.00232193, Final residual = 0.000167606, No Iterations 4
smoothSolver:  Solving for Uz, Initial residual = 0.00222816, Final residual = 0.000163618, No Iterations 4
GAMG:  Solving for p, Initial residual = 0.00232697, Final residual = 0.000190273, No Iterations 1
time step continuity errors : sum local = 0.0017318, global = 7.08019e-05, cumulative = 0.517199
ExecutionTime = 191.11 s  ClockTime = 193 s

Time = 107

smoothSolver:  Solving for Ux, Initial residual = 0.00138016, Final residual = 9.48712e-05, No Iterations 4
smoothSolver:  Solving for Uy, Initial residual = 0.00229722, Final residual = 0.000165879, No Iterations 4
smoothSolver:  Solving for Uz, Initial residual = 0.00219906, Final residual = 0.0001615, No Iterations 4
GAMG:  Solving for p, Initial residual = 0.00229596, Final residual = 0.000188134, No Iterations 1
time step continuity errors : sum local = 0.00171492, global = 7.05991e-05, cumulative = 0.517269
ExecutionTime = 192.91 s  ClockTime = 194 s

Time = 108

smoothSolver:  Solving for Ux, Initial residual = 0.00136796, Final residual = 9.40586e-05, No Iterations 4
smoothSolver:  Solving for Uy, Initial residual = 0.00227286, Final residual = 0.000164173, No Iterations 4
smoothSolver:  Solving for Uz, Initial residual = 0.00217056, Final residual = 0.000159425, No Iterations 4
GAMG:  Solving for p, Initial residual = 0.00226557, Final residual = 0.000186268, No Iterations 1
time step continuity errors : sum local = 0.00170046, global = 7.0271e-05, cumulative = 0.51734
ExecutionTime = 194.69 s  ClockTime = 196 s

Time = 109

smoothSolver:  Solving for Ux, Initial residual = 0.00135613, Final residual = 9.32665e-05, No Iterations 4
smoothSolver:  Solving for Uy, Initial residual = 0.00224885, Final residual = 0.000162487, No Iterations 4
smoothSolver:  Solving for Uz, Initial residual = 0.00214262, Final residual = 0.000157392, No Iterations 4
GAMG:  Solving for p, Initial residual = 0.00223608, Final residual = 0.000184498, No Iterations 1
time step continuity errors : sum local = 0.00168681, global = 6.99264e-05, cumulative = 0.51741
ExecutionTime = 196.44 s  ClockTime = 198 s

Time = 110

smoothSolver:  Solving for Ux, Initial residual = 0.00134462, Final residual = 9.24954e-05, No Iterations 4
smoothSolver:  Solving for Uy, Initial residual = 0.00222524, Final residual = 0.000160822, No Iterations 4
smoothSolver:  Solving for Uz, Initial residual = 0.00211522, Final residual = 0.000155397, No Iterations 4
GAMG:  Solving for p, Initial residual = 0.00220731, Final residual = 0.000182757, No Iterations 1
time step continuity errors : sum local = 0.00167335, global = 6.95473e-05, cumulative = 0.517479
ExecutionTime = 198.27 s  ClockTime = 200 s

Time = 111

smoothSolver:  Solving for Ux, Initial residual = 0.00133342, Final residual = 9.17406e-05, No Iterations 4
smoothSolver:  Solving for Uy, Initial residual = 0.002202, Final residual = 0.000159174, No Iterations 4
smoothSolver:  Solving for Uz, Initial residual = 0.00208834, Final residual = 0.00015344, No Iterations 4
GAMG:  Solving for p, Initial residual = 0.00217927, Final residual = 0.000181027, No Iterations 1
time step continuity errors : sum local = 0.00165992, global = 6.91364e-05, cumulative = 0.517548
ExecutionTime = 200.02 s  ClockTime = 202 s

Time = 112

smoothSolver:  Solving for Ux, Initial residual = 0.00132249, Final residual = 9.10011e-05, No Iterations 4
smoothSolver:  Solving for Uy, Initial residual = 0.00217912, Final residual = 0.000157539, No Iterations 4
smoothSolver:  Solving for Uz, Initial residual = 0.00206201, Final residual = 0.000151519, No Iterations 4
GAMG:  Solving for p, Initial residual = 0.00215188, Final residual = 0.000179331, No Iterations 1
time step continuity errors : sum local = 0.00164673, global = 6.87242e-05, cumulative = 0.517617
ExecutionTime = 201.8 s  ClockTime = 203 s

Time = 113

smoothSolver:  Solving for Ux, Initial residual = 0.00131181, Final residual = 9.02795e-05, No Iterations 4
smoothSolver:  Solving for Uy, Initial residual = 0.00215659, Final residual = 0.000155931, No Iterations 4
smoothSolver:  Solving for Uz, Initial residual = 0.0020362, Final residual = 0.000149636, No Iterations 4
GAMG:  Solving for p, Initial residual = 0.00212505, Final residual = 0.000177682, No Iterations 1
time step continuity errors : sum local = 0.0016339, global = 6.83166e-05, cumulative = 0.517685
ExecutionTime = 203.6 s  ClockTime = 205 s

Time = 114

smoothSolver:  Solving for Ux, Initial residual = 0.00130138, Final residual = 8.95732e-05, No Iterations 4
smoothSolver:  Solving for Uy, Initial residual = 0.00213443, Final residual = 0.000154349, No Iterations 4
smoothSolver:  Solving for Uz, Initial residual = 0.00201088, Final residual = 0.000147786, No Iterations 4
GAMG:  Solving for p, Initial residual = 0.00209884, Final residual = 0.000176084, No Iterations 1
time step continuity errors : sum local = 0.00162149, global = 6.79317e-05, cumulative = 0.517753
ExecutionTime = 205.43 s  ClockTime = 207 s

Time = 115

smoothSolver:  Solving for Ux, Initial residual = 0.0012912, Final residual = 8.8886e-05, No Iterations 4
smoothSolver:  Solving for Uy, Initial residual = 0.00211258, Final residual = 0.00015279, No Iterations 4
smoothSolver:  Solving for Uz, Initial residual = 0.00198602, Final residual = 0.000145968, No Iterations 4
GAMG:  Solving for p, Initial residual = 0.0020732, Final residual = 0.000174527, No Iterations 1
time step continuity errors : sum local = 0.00160938, global = 6.75702e-05, cumulative = 0.517821
ExecutionTime = 207.15 s  ClockTime = 209 s

Time = 116

smoothSolver:  Solving for Ux, Initial residual = 0.00128124, Final residual = 8.82132e-05, No Iterations 4
smoothSolver:  Solving for Uy, Initial residual = 0.00209107, Final residual = 0.000151256, No Iterations 4
smoothSolver:  Solving for Uz, Initial residual = 0.00196161, Final residual = 0.000144183, No Iterations 4
GAMG:  Solving for p, Initial residual = 0.00204816, Final residual = 0.000173006, No Iterations 1
time step continuity errors : sum local = 0.00159755, global = 6.72383e-05, cumulative = 0.517888
ExecutionTime = 208.98 s  ClockTime = 211 s

Time = 117

smoothSolver:  Solving for Ux, Initial residual = 0.00127153, Final residual = 8.7555e-05, No Iterations 4
smoothSolver:  Solving for Uy, Initial residual = 0.00206993, Final residual = 0.000149746, No Iterations 4
smoothSolver:  Solving for Uz, Initial residual = 0.00193764, Final residual = 0.000142431, No Iterations 4
GAMG:  Solving for p, Initial residual = 0.00202369, Final residual = 0.000171521, No Iterations 1
time step continuity errors : sum local = 0.00158599, global = 6.69263e-05, cumulative = 0.517955
ExecutionTime = 210.77 s  ClockTime = 212 s

Time = 118

smoothSolver:  Solving for Ux, Initial residual = 0.00126206, Final residual = 8.69095e-05, No Iterations 4
smoothSolver:  Solving for Uy, Initial residual = 0.00204914, Final residual = 0.00014826, No Iterations 4
smoothSolver:  Solving for Uz, Initial residual = 0.00191412, Final residual = 0.00014071, No Iterations 4
GAMG:  Solving for p, Initial residual = 0.00199974, Final residual = 0.000170072, No Iterations 1
time step continuity errors : sum local = 0.0015747, global = 6.66343e-05, cumulative = 0.518022
ExecutionTime = 212.53 s  ClockTime = 214 s

Time = 119

smoothSolver:  Solving for Ux, Initial residual = 0.00125285, Final residual = 8.6277e-05, No Iterations 4
smoothSolver:  Solving for Uy, Initial residual = 0.00202872, Final residual = 0.000146798, No Iterations 4
smoothSolver:  Solving for Uz, Initial residual = 0.00189101, Final residual = 0.000139017, No Iterations 4
GAMG:  Solving for p, Initial residual = 0.00197639, Final residual = 0.000168672, No Iterations 1
time step continuity errors : sum local = 0.00156381, global = 6.62956e-05, cumulative = 0.518088
ExecutionTime = 214.35 s  ClockTime = 216 s

Time = 120

smoothSolver:  Solving for Ux, Initial residual = 0.00124389, Final residual = 8.56583e-05, No Iterations 4
smoothSolver:  Solving for Uy, Initial residual = 0.00200864, Final residual = 0.000145359, No Iterations 4
smoothSolver:  Solving for Uz, Initial residual = 0.00186831, Final residual = 0.000137352, No Iterations 4
GAMG:  Solving for p, Initial residual = 0.00195352, Final residual = 0.00016729, No Iterations 1
time step continuity errors : sum local = 0.00155303, global = 6.59859e-05, cumulative = 0.518154
ExecutionTime = 216.12 s  ClockTime = 218 s

Time = 121

smoothSolver:  Solving for Ux, Initial residual = 0.0012351, Final residual = 8.50499e-05, No Iterations 4
smoothSolver:  Solving for Uy, Initial residual = 0.00198893, Final residual = 0.000143937, No Iterations 4
smoothSolver:  Solving for Uz, Initial residual = 0.00184601, Final residual = 0.000135714, No Iterations 4
GAMG:  Solving for p, Initial residual = 0.00193106, Final residual = 0.000165976, No Iterations 1
time step continuity errors : sum local = 0.00154283, global = 6.56508e-05, cumulative = 0.51822
ExecutionTime = 217.82 s  ClockTime = 219 s

Time = 122

smoothSolver:  Solving for Ux, Initial residual = 0.00122648, Final residual = 8.4454e-05, No Iterations 4
smoothSolver:  Solving for Uy, Initial residual = 0.00196953, Final residual = 0.000142534, No Iterations 4
smoothSolver:  Solving for Uz, Initial residual = 0.00182409, Final residual = 0.000134103, No Iterations 4
GAMG:  Solving for p, Initial residual = 0.00190899, Final residual = 0.000164705, No Iterations 1
time step continuity errors : sum local = 0.00153298, global = 6.53078e-05, cumulative = 0.518285
ExecutionTime = 219.61 s  ClockTime = 221 s

Time = 123

smoothSolver:  Solving for Ux, Initial residual = 0.00121806, Final residual = 8.38689e-05, No Iterations 4
smoothSolver:  Solving for Uy, Initial residual = 0.00195038, Final residual = 0.00014115, No Iterations 4
smoothSolver:  Solving for Uz, Initial residual = 0.00180255, Final residual = 0.000132517, No Iterations 4
GAMG:  Solving for p, Initial residual = 0.00188729, Final residual = 0.000163469, No Iterations 1
time step continuity errors : sum local = 0.0015234, global = 6.49489e-05, cumulative = 0.51835
ExecutionTime = 221.41 s  ClockTime = 223 s

Time = 124

smoothSolver:  Solving for Ux, Initial residual = 0.00120987, Final residual = 8.32954e-05, No Iterations 4
smoothSolver:  Solving for Uy, Initial residual = 0.00193154, Final residual = 0.000139786, No Iterations 4
smoothSolver:  Solving for Uz, Initial residual = 0.00178139, Final residual = 0.000130956, No Iterations 4
GAMG:  Solving for p, Initial residual = 0.00186596, Final residual = 0.000162261, No Iterations 1
time step continuity errors : sum local = 0.00151404, global = 6.45745e-05, cumulative = 0.518414
ExecutionTime = 223.2 s  ClockTime = 225 s

Time = 125

smoothSolver:  Solving for Ux, Initial residual = 0.00120185, Final residual = 8.27316e-05, No Iterations 4
smoothSolver:  Solving for Uy, Initial residual = 0.00191304, Final residual = 0.000138436, No Iterations 4
smoothSolver:  Solving for Uz, Initial residual = 0.0017606, Final residual = 0.000129417, No Iterations 4
GAMG:  Solving for p, Initial residual = 0.00184493, Final residual = 0.00016108, No Iterations 1
time step continuity errors : sum local = 0.00150489, global = 6.41867e-05, cumulative = 0.518479
ExecutionTime = 224.98 s  ClockTime = 227 s

Time = 126

smoothSolver:  Solving for Ux, Initial residual = 0.001194, Final residual = 8.21765e-05, No Iterations 4
smoothSolver:  Solving for Uy, Initial residual = 0.00189488, Final residual = 0.000137104, No Iterations 4
smoothSolver:  Solving for Uz, Initial residual = 0.00174015, Final residual = 0.000127903, No Iterations 4
GAMG:  Solving for p, Initial residual = 0.00182425, Final residual = 0.000159928, No Iterations 1
time step continuity errors : sum local = 0.00149598, global = 6.37846e-05, cumulative = 0.518542
ExecutionTime = 226.76 s  ClockTime = 228 s

Time = 127

smoothSolver:  Solving for Ux, Initial residual = 0.00118634, Final residual = 8.16323e-05, No Iterations 4
smoothSolver:  Solving for Uy, Initial residual = 0.00187697, Final residual = 0.000135787, No Iterations 4
smoothSolver:  Solving for Uz, Initial residual = 0.00172002, Final residual = 0.000126412, No Iterations 4
GAMG:  Solving for p, Initial residual = 0.0018039, Final residual = 0.000158808, No Iterations 1
time step continuity errors : sum local = 0.0014873, global = 6.33694e-05, cumulative = 0.518606
ExecutionTime = 228.51 s  ClockTime = 230 s

Time = 128

smoothSolver:  Solving for Ux, Initial residual = 0.00117883, Final residual = 8.10969e-05, No Iterations 4
smoothSolver:  Solving for Uy, Initial residual = 0.00185933, Final residual = 0.000134488, No Iterations 4
smoothSolver:  Solving for Uz, Initial residual = 0.00170023, Final residual = 0.000124942, No Iterations 4
GAMG:  Solving for p, Initial residual = 0.00178388, Final residual = 0.000157722, No Iterations 1
time step continuity errors : sum local = 0.00147892, global = 6.29411e-05, cumulative = 0.518669
ExecutionTime = 230.32 s  ClockTime = 232 s

Time = 129

smoothSolver:  Solving for Ux, Initial residual = 0.0011715, Final residual = 8.05703e-05, No Iterations 4
smoothSolver:  Solving for Uy, Initial residual = 0.00184199, Final residual = 0.000133205, No Iterations 4
smoothSolver:  Solving for Uz, Initial residual = 0.00168076, Final residual = 0.000123492, No Iterations 4
GAMG:  Solving for p, Initial residual = 0.00176412, Final residual = 0.000156654, No Iterations 1
time step continuity errors : sum local = 0.00147066, global = 6.26597e-05, cumulative = 0.518731
ExecutionTime = 232.13 s  ClockTime = 234 s

Time = 130

smoothSolver:  Solving for Ux, Initial residual = 0.00116429, Final residual = 8.00499e-05, No Iterations 4
smoothSolver:  Solving for Uy, Initial residual = 0.00182495, Final residual = 0.000131942, No Iterations 4
smoothSolver:  Solving for Uz, Initial residual = 0.00166161, Final residual = 0.000122063, No Iterations 4
GAMG:  Solving for p, Initial residual = 0.00174461, Final residual = 0.000155643, No Iterations 1
time step continuity errors : sum local = 0.00146291, global = 6.22125e-05, cumulative = 0.518794
ExecutionTime = 233.92 s  ClockTime = 236 s

Time = 131

smoothSolver:  Solving for Ux, Initial residual = 0.00115723, Final residual = 7.95392e-05, No Iterations 4
smoothSolver:  Solving for Uy, Initial residual = 0.0018082, Final residual = 0.000130693, No Iterations 4
smoothSolver:  Solving for Uz, Initial residual = 0.00164274, Final residual = 0.000120653, No Iterations 4
GAMG:  Solving for p, Initial residual = 0.00172547, Final residual = 0.000154636, No Iterations 1
time step continuity errors : sum local = 0.00145514, global = 6.18521e-05, cumulative = 0.518855
ExecutionTime = 235.72 s  ClockTime = 237 s

Time = 132

smoothSolver:  Solving for Ux, Initial residual = 0.0011503, Final residual = 7.90372e-05, No Iterations 4
smoothSolver:  Solving for Uy, Initial residual = 0.00179167, Final residual = 0.000129462, No Iterations 4
smoothSolver:  Solving for Uz, Initial residual = 0.00162416, Final residual = 0.000119262, No Iterations 4
GAMG:  Solving for p, Initial residual = 0.00170661, Final residual = 0.000153658, No Iterations 1
time step continuity errors : sum local = 0.00144762, global = 6.14245e-05, cumulative = 0.518917
ExecutionTime = 237.49 s  ClockTime = 239 s

Time = 133

smoothSolver:  Solving for Ux, Initial residual = 0.00114349, Final residual = 7.85418e-05, No Iterations 4
smoothSolver:  Solving for Uy, Initial residual = 0.00177539, Final residual = 0.000128251, No Iterations 4
smoothSolver:  Solving for Uz, Initial residual = 0.00160583, Final residual = 0.000117886, No Iterations 4
GAMG:  Solving for p, Initial residual = 0.00168799, Final residual = 0.000152713, No Iterations 1
time step continuity errors : sum local = 0.00144037, global = 6.09951e-05, cumulative = 0.518978
ExecutionTime = 239.24 s  ClockTime = 241 s

Time = 134

smoothSolver:  Solving for Ux, Initial residual = 0.0011368, Final residual = 7.80529e-05, No Iterations 4
smoothSolver:  Solving for Uy, Initial residual = 0.00175946, Final residual = 0.000127057, No Iterations 4
smoothSolver:  Solving for Uz, Initial residual = 0.00158776, Final residual = 0.000116528, No Iterations 4
GAMG:  Solving for p, Initial residual = 0.00166963, Final residual = 0.000151807, No Iterations 1
time step continuity errors : sum local = 0.00143345, global = 6.05105e-05, cumulative = 0.519038
ExecutionTime = 241.05 s  ClockTime = 243 s

Time = 135

smoothSolver:  Solving for Ux, Initial residual = 0.00113025, Final residual = 7.75716e-05, No Iterations 4
smoothSolver:  Solving for Uy, Initial residual = 0.00174381, Final residual = 0.000125877, No Iterations 4
smoothSolver:  Solving for Uz, Initial residual = 0.00156994, Final residual = 0.000115185, No Iterations 4
GAMG:  Solving for p, Initial residual = 0.00165157, Final residual = 0.000150937, No Iterations 1
time step continuity errors : sum local = 0.00142683, global = 5.99884e-05, cumulative = 0.519098
ExecutionTime = 242.85 s  ClockTime = 244 s

Time = 136

[...]
smoothSolver:  Solving for Uz, Initial residual = 9.65397e-07, Final residual = 6.32444e-08, No Iterations 4
GAMG:  Solving for p, Initial residual = 1.21133e-06, Final residual = 6.34189e-08, No Iterations 2
time step continuity errors : sum local = 6.47834e-07, global = -2.33728e-08, cumulative = 0.518659
ExecutionTime = 690.52 s  ClockTime = 696 s

Time = 412

smoothSolver:  Solving for Ux, Initial residual = 1.02855e-06, Final residual = 6.5446e-08, No Iterations 4
smoothSolver:  Solving for Uy, Initial residual = 2.73123e-06, Final residual = 1.70078e-07, No Iterations 4
smoothSolver:  Solving for Uz, Initial residual = 9.35235e-07, Final residual = 6.11583e-08, No Iterations 4
GAMG:  Solving for p, Initial residual = 1.19689e-06, Final residual = 1.15691e-07, No Iterations 1
time step continuity errors : sum local = 1.1818e-06, global = -5.60541e-08, cumulative = 0.518659
ExecutionTime = 692.06 s  ClockTime = 697 s

Time = 413

smoothSolver:  Solving for Ux, Initial residual = 9.9394e-07, Final residual = 6.3288e-08, No Iterations 4
smoothSolver:  Solving for Uy, Initial residual = 2.63784e-06, Final residual = 1.64849e-07, No Iterations 4
smoothSolver:  Solving for Uz, Initial residual = 9.11052e-07, Final residual = 5.97133e-08, No Iterations 4
GAMG:  Solving for p, Initial residual = 1.13895e-06, Final residual = 5.97852e-08, No Iterations 2
time step continuity errors : sum local = 6.10716e-07, global = -2.18573e-08, cumulative = 0.518659
ExecutionTime = 693.69 s  ClockTime = 699 s

Time = 414

smoothSolver:  Solving for Ux, Initial residual = 9.79514e-07, Final residual = 6.24483e-08, No Iterations 4
smoothSolver:  Solving for Uy, Initial residual = 2.56687e-06, Final residual = 1.59886e-07, No Iterations 4
smoothSolver:  Solving for Uz, Initial residual = 8.82714e-07, Final residual = 5.77533e-08, No Iterations 4
GAMG:  Solving for p, Initial residual = 1.12543e-06, Final residual = 1.08826e-07, No Iterations 1
time step continuity errors : sum local = 1.11167e-06, global = -5.31772e-08, cumulative = 0.518659
ExecutionTime = 695.23 s  ClockTime = 700 s

Time = 415

smoothSolver:  Solving for Ux, Initial residual = 9.46641e-07, Final residual = 6.03955e-08, No Iterations 4
smoothSolver:  Solving for Uy, Initial residual = 2.47901e-06, Final residual = 1.54967e-07, No Iterations 4
smoothSolver:  Solving for Uz, Initial residual = 8.6e-07, Final residual = 5.63959e-08, No Iterations 4
GAMG:  Solving for p, Initial residual = 1.07104e-06, Final residual = 5.63726e-08, No Iterations 2
time step continuity errors : sum local = 5.75855e-07, global = -2.04491e-08, cumulative = 0.518659
ExecutionTime = 696.84 s  ClockTime = 702 s

Time = 416

smoothSolver:  Solving for Ux, Initial residual = 9.33124e-07, Final residual = 5.96078e-08, No Iterations 4
smoothSolver:  Solving for Uy, Initial residual = 2.41219e-06, Final residual = 1.50291e-07, No Iterations 4
smoothSolver:  Solving for Uz, Initial residual = 8.33372e-07, Final residual = 5.4554e-08, No Iterations 4
GAMG:  Solving for p, Initial residual = 1.05838e-06, Final residual = 1.0238e-07, No Iterations 1
time step continuity errors : sum local = 1.04583e-06, global = -5.04398e-08, cumulative = 0.518659
ExecutionTime = 698.45 s  ClockTime = 704 s

Time = 417

smoothSolver:  Solving for Ux, Initial residual = 9.01887e-07, Final residual = 5.76542e-08, No Iterations 4
smoothSolver:  Solving for Uy, Initial residual = 2.32953e-06, Final residual = 1.45663e-07, No Iterations 4
smoothSolver:  Solving for Uz, Initial residual = 8.12035e-07, Final residual = 5.32789e-08, No Iterations 4
GAMG:  Solving for p, Initial residual = 1.00734e-06, Final residual = 5.31651e-08, No Iterations 2
time step continuity errors : sum local = 5.4309e-07, global = -1.9137e-08, cumulative = 0.518659
ExecutionTime = 700.31 s  ClockTime = 706 s

Time = 418

smoothSolver:  Solving for Ux, Initial residual = 8.89222e-07, Final residual = 5.6915e-08, No Iterations 4
smoothSolver:  Solving for Uy, Initial residual = 2.26663e-06, Final residual = 1.41257e-07, No Iterations 4
smoothSolver:  Solving for Uz, Initial residual = 7.87017e-07, Final residual = 5.15483e-08, No Iterations 4
GAMG:  Solving for p, Initial residual = 9.95497e-07, Final residual = 9.63291e-08, No Iterations 1
time step continuity errors : sum local = 9.84018e-07, global = -4.78361e-08, cumulative = 0.518659
ExecutionTime = 702.52 s  ClockTime = 708 s

Time = 419

smoothSolver:  Solving for Ux, Initial residual = 8.59527e-07, Final residual = 5.5055e-08, No Iterations 4
smoothSolver:  Solving for Uy, Initial residual = 2.18888e-06, Final residual = 1.36904e-07, No Iterations 4
smoothSolver:  Solving for Uz, Initial residual = 7.66976e-07, Final residual = 5.03505e-08, No Iterations 4
GAMG:  Solving for p, Initial residual = 9.47596e-07, Final residual = 5.01494e-08, No Iterations 2
time step continuity errors : sum local = 5.12284e-07, global = -1.79131e-08, cumulative = 0.518659
ExecutionTime = 704.69 s  ClockTime = 710 s

Time = 420

smoothSolver:  Solving for Ux, Initial residual = 8.47668e-07, Final residual = 5.43609e-08, No Iterations 4
smoothSolver:  Solving for Uy, Initial residual = 2.12966e-06, Final residual = 1.32753e-07, No Iterations 4
smoothSolver:  Solving for Uz, Initial residual = 7.43468e-07, Final residual = 4.87246e-08, No Iterations 4
GAMG:  Solving for p, Initial residual = 9.36508e-07, Final residual = 9.06463e-08, No Iterations 1
time step continuity errors : sum local = 9.25967e-07, global = -4.53658e-08, cumulative = 0.518659
ExecutionTime = 706.72 s  ClockTime = 712 s

Time = 421

smoothSolver:  Solving for Ux, Initial residual = 8.19423e-07, Final residual = 5.25893e-08, No Iterations 4
smoothSolver:  Solving for Uy, Initial residual = 2.05653e-06, Final residual = 1.28659e-07, No Iterations 4
smoothSolver:  Solving for Uz, Initial residual = 7.24649e-07, Final residual = 4.75997e-08, No Iterations 4
GAMG:  Solving for p, Initial residual = 8.91546e-07, Final residual = 4.73148e-08, No Iterations 2
time step continuity errors : sum local = 4.83328e-07, global = -1.67714e-08, cumulative = 0.518659
ExecutionTime = 708.63 s  ClockTime = 714 s

Time = 422

smoothSolver:  Solving for Ux, Initial residual = 8.08316e-07, Final residual = 5.19377e-08, No Iterations 4
smoothSolver:  Solving for Uy, Initial residual = 2.00078e-06, Final residual = 1.24749e-07, No Iterations 4
smoothSolver:  Solving for Uz, Initial residual = 7.0256e-07, Final residual = 4.60724e-08, No Iterations 4
GAMG:  Solving for p, Initial residual = 8.81161e-07, Final residual = 8.53088e-08, No Iterations 1
time step continuity errors : sum local = 8.71443e-07, global = -4.30283e-08, cumulative = 0.518659
ExecutionTime = 710.4 s  ClockTime = 716 s

Time = 423

smoothSolver:  Solving for Ux, Initial residual = 7.81437e-07, Final residual = 5.02495e-08, No Iterations 4
smoothSolver:  Solving for Uy, Initial residual = 1.932e-06, Final residual = 1.20898e-07, No Iterations 4
smoothSolver:  Solving for Uz, Initial residual = 6.84881e-07, Final residual = 4.50156e-08, No Iterations 4
GAMG:  Solving for p, Initial residual = 8.38968e-07, Final residual = 4.46498e-08, No Iterations 2
time step continuity errors : sum local = 4.56104e-07, global = -1.57057e-08, cumulative = 0.518659
ExecutionTime = 712.24 s  ClockTime = 717 s

Time = 424

smoothSolver:  Solving for Ux, Initial residual = 7.71035e-07, Final residual = 4.9638e-08, No Iterations 4
smoothSolver:  Solving for Uy, Initial residual = 1.87953e-06, Final residual = 1.17215e-07, No Iterations 4
smoothSolver:  Solving for Uz, Initial residual = 6.64122e-07, Final residual = 4.35805e-08, No Iterations 4
GAMG:  Solving for p, Initial residual = 8.29231e-07, Final residual = 8.0296e-08, No Iterations 1
time step continuity errors : sum local = 8.20237e-07, global = -4.08211e-08, cumulative = 0.518659
ExecutionTime = 713.97 s  ClockTime = 719 s

Time = 425

smoothSolver:  Solving for Ux, Initial residual = 7.45445e-07, Final residual = 4.80283e-08, No Iterations 4
smoothSolver:  Solving for Uy, Initial residual = 1.81483e-06, Final residual = 1.13593e-07, No Iterations 4
smoothSolver:  Solving for Uz, Initial residual = 6.47519e-07, Final residual = 4.25877e-08, No Iterations 4
GAMG:  Solving for p, Initial residual = 7.89637e-07, Final residual = 4.2144e-08, No Iterations 2
time step continuity errors : sum local = 4.30507e-07, global = -1.47095e-08, cumulative = 0.518659
ExecutionTime = 715.81 s  ClockTime = 721 s

Time = 426

smoothSolver:  Solving for Ux, Initial residual = 7.35703e-07, Final residual = 4.74543e-08, No Iterations 4
smoothSolver:  Solving for Uy, Initial residual = 1.76545e-06, Final residual = 1.10125e-07, No Iterations 4
smoothSolver:  Solving for Uz, Initial residual = 6.28006e-07, Final residual = 4.12388e-08, No Iterations 4
GAMG:  Solving for p, Initial residual = 7.80509e-07, Final residual = 7.55866e-08, No Iterations 1
time step continuity errors : sum local = 7.7213e-07, global = -3.87385e-08, cumulative = 0.518659
ExecutionTime = 717.56 s  ClockTime = 723 s

Time = 427

smoothSolver:  Solving for Ux, Initial residual = 7.11328e-07, Final residual = 4.59188e-08, No Iterations 4
smoothSolver:  Solving for Uy, Initial residual = 1.70459e-06, Final residual = 1.06718e-07, No Iterations 4
smoothSolver:  Solving for Uz, Initial residual = 6.12408e-07, Final residual = 4.03058e-08, No Iterations 4
GAMG:  Solving for p, Initial residual = 7.43345e-07, Final residual = 3.97875e-08, No Iterations 2
time step continuity errors : sum local = 4.06436e-07, global = -1.37765e-08, cumulative = 0.518659
ExecutionTime = 719.32 s  ClockTime = 725 s

Time = 428

smoothSolver:  Solving for Ux, Initial residual = 7.02205e-07, Final residual = 4.538e-08, No Iterations 4
smoothSolver:  Solving for Uy, Initial residual = 1.65813e-06, Final residual = 1.03452e-07, No Iterations 4
smoothSolver:  Solving for Uz, Initial residual = 5.94064e-07, Final residual = 3.90377e-08, No Iterations 4
GAMG:  Solving for p, Initial residual = 7.34794e-07, Final residual = 7.11624e-08, No Iterations 1
time step continuity errors : sum local = 7.26936e-07, global = -3.67734e-08, cumulative = 0.518659
ExecutionTime = 721.08 s  ClockTime = 726 s

Time = 429

smoothSolver:  Solving for Ux, Initial residual = 6.78974e-07, Final residual = 4.39145e-08, No Iterations 4
smoothSolver:  Solving for Uy, Initial residual = 1.60089e-06, Final residual = 1.00249e-07, No Iterations 4
smoothSolver:  Solving for Uz, Initial residual = 5.79413e-07, Final residual = 3.81612e-08, No Iterations 4
GAMG:  Solving for p, Initial residual = 6.99908e-07, Final residual = 3.75707e-08, No Iterations 2
time step continuity errors : sum local = 3.83791e-07, global = -1.29009e-08, cumulative = 0.518659
ExecutionTime = 722.93 s  ClockTime = 728 s

Time = 430

smoothSolver:  Solving for Ux, Initial residual = 6.70433e-07, Final residual = 4.34087e-08, No Iterations 4
smoothSolver:  Solving for Uy, Initial residual = 1.55717e-06, Final residual = 9.71733e-08, No Iterations 4
smoothSolver:  Solving for Uz, Initial residual = 5.62169e-07, Final residual = 3.69691e-08, No Iterations 4
GAMG:  Solving for p, Initial residual = 6.91893e-07, Final residual = 6.70065e-08, No Iterations 1
time step continuity errors : sum local = 6.84483e-07, global = -3.49179e-08, cumulative = 0.518659
ExecutionTime = 724.66 s  ClockTime = 730 s

Time = 431

smoothSolver:  Solving for Ux, Initial residual = 6.48281e-07, Final residual = 4.20093e-08, No Iterations 4
smoothSolver:  Solving for Uy, Initial residual = 1.50333e-06, Final residual = 9.41607e-08, No Iterations 4
smoothSolver:  Solving for Uz, Initial residual = 5.48407e-07, Final residual = 3.61457e-08, No Iterations 4
GAMG:  Solving for p, Initial residual = 6.59157e-07, Final residual = 3.54856e-08, No Iterations 2
time step continuity errors : sum local = 3.62491e-07, global = -1.20778e-08, cumulative = 0.518659
ExecutionTime = 726.5 s  ClockTime = 732 s

Time = 432

smoothSolver:  Solving for Ux, Initial residual = 6.40284e-07, Final residual = 4.15345e-08, No Iterations 4
smoothSolver:  Solving for Uy, Initial residual = 1.46219e-06, Final residual = 9.1265e-08, No Iterations 4
smoothSolver:  Solving for Uz, Initial residual = 5.32193e-07, Final residual = 3.50246e-08, No Iterations 4
GAMG:  Solving for p, Initial residual = 6.51639e-07, Final residual = 6.31012e-08, No Iterations 1
time step continuity errors : sum local = 6.4459e-07, global = -3.31652e-08, cumulative = 0.518659
ExecutionTime = 728.24 s  ClockTime = 733 s

Time = 433

smoothSolver:  Solving for Ux, Initial residual = 6.19151e-07, Final residual = 4.01975e-08, No Iterations 4
smoothSolver:  Solving for Uy, Initial residual = 1.41156e-06, Final residual = 8.84323e-08, No Iterations 4
smoothSolver:  Solving for Uz, Initial residual = 5.19264e-07, Final residual = 3.42512e-08, No Iterations 4
GAMG:  Solving for p, Initial residual = 6.20918e-07, Final residual = 3.35241e-08, No Iterations 2
time step continuity errors : sum local = 3.42455e-07, global = -1.13032e-08, cumulative = 0.518659
ExecutionTime = 730.02 s  ClockTime = 735 s

Time = 434

smoothSolver:  Solving for Ux, Initial residual = 6.1166e-07, Final residual = 3.97518e-08, No Iterations 4
smoothSolver:  Solving for Uy, Initial residual = 1.37286e-06, Final residual = 8.57063e-08, No Iterations 4
smoothSolver:  Solving for Uz, Initial residual = 5.04018e-07, Final residual = 3.31972e-08, No Iterations 4
GAMG:  Solving for p, Initial residual = 6.13869e-07, Final residual = 5.94321e-08, No Iterations 1
time step continuity errors : sum local = 6.07109e-07, global = -3.15094e-08, cumulative = 0.518659
ExecutionTime = 731.75 s  ClockTime = 737 s

Time = 435

smoothSolver:  Solving for Ux, Initial residual = 5.91493e-07, Final residual = 3.84739e-08, No Iterations 4
smoothSolver:  Solving for Uy, Initial residual = 1.32524e-06, Final residual = 8.30427e-08, No Iterations 4
smoothSolver:  Solving for Uz, Initial residual = 4.9187e-07, Final residual = 3.24705e-08, No Iterations 4
GAMG:  Solving for p, Initial residual = 5.85024e-07, Final residual = 3.16781e-08, No Iterations 2
time step continuity errors : sum local = 3.23598e-07, global = -1.05739e-08, cumulative = 0.518659
ExecutionTime = 733.6 s  ClockTime = 739 s

Time = 436

smoothSolver:  Solving for Ux, Initial residual = 5.84476e-07, Final residual = 3.80552e-08, No Iterations 4
smoothSolver:  Solving for Uy, Initial residual = 1.28884e-06, Final residual = 8.04767e-08, No Iterations 4
smoothSolver:  Solving for Uz, Initial residual = 4.77536e-07, Final residual = 3.14792e-08, No Iterations 4
GAMG:  Solving for p, Initial residual = 5.78418e-07, Final residual = 5.59858e-08, No Iterations 1
time step continuity errors : sum local = 5.71904e-07, global = -2.99451e-08, cumulative = 0.518659
ExecutionTime = 735.34 s  ClockTime = 741 s

Time = 437

smoothSolver:  Solving for Ux, Initial residual = 5.65219e-07, Final residual = 3.68335e-08, No Iterations 4
smoothSolver:  Solving for Uy, Initial residual = 1.24404e-06, Final residual = 7.79723e-08, No Iterations 4
smoothSolver:  Solving for Uz, Initial residual = 4.66124e-07, Final residual = 3.07965e-08, No Iterations 4
GAMG:  Solving for p, Initial residual = 5.51337e-07, Final residual = 2.99411e-08, No Iterations 2
time step continuity errors : sum local = 3.05854e-07, global = -9.8876e-09, cumulative = 0.518659
ExecutionTime = 737.17 s  ClockTime = 742 s

Time = 438

smoothSolver:  Solving for Ux, Initial residual = 5.58647e-07, Final residual = 3.64401e-08, No Iterations 4
smoothSolver:  Solving for Uy, Initial residual = 1.20981e-06, Final residual = 7.55574e-08, No Iterations 4
smoothSolver:  Solving for Uz, Initial residual = 4.52646e-07, Final residual = 2.9864e-08, No Iterations 4
GAMG:  Solving for p, Initial residual = 5.45147e-07, Final residual = 5.27475e-08, No Iterations 1
time step continuity errors : sum local = 5.38824e-07, global = -2.8468e-08, cumulative = 0.518659
ExecutionTime = 738.91 s  ClockTime = 744 s

Time = 439

smoothSolver:  Solving for Ux, Initial residual = 5.4025e-07, Final residual = 3.52715e-08, No Iterations 4
smoothSolver:  Solving for Uy, Initial residual = 1.16768e-06, Final residual = 7.32031e-08, No Iterations 4
smoothSolver:  Solving for Uz, Initial residual = 4.41922e-07, Final residual = 2.92223e-08, No Iterations 4
GAMG:  Solving for p, Initial residual = 5.19712e-07, Final residual = 2.83062e-08, No Iterations 2
time step continuity errors : sum local = 2.89153e-07, global = -9.24097e-09, cumulative = 0.518658
ExecutionTime = 740.71 s  ClockTime = 746 s

Time = 440

smoothSolver:  Solving for Ux, Initial residual = 5.34097e-07, Final residual = 3.49016e-08, No Iterations 4
smoothSolver:  Solving for Uy, Initial residual = 1.1355e-06, Final residual = 7.09309e-08, No Iterations 4
smoothSolver:  Solving for Uz, Initial residual = 4.29245e-07, Final residual = 2.83452e-08, No Iterations 4
GAMG:  Solving for p, Initial residual = 5.1392e-07, Final residual = 4.97045e-08, No Iterations 1
time step continuity errors : sum local = 5.0774e-07, global = -2.70739e-08, cumulative = 0.518658
ExecutionTime = 742.49 s  ClockTime = 748 s

Time = 441

smoothSolver:  Solving for Ux, Initial residual = 5.1651e-07, Final residual = 3.37833e-08, No Iterations 4
smoothSolver:  Solving for Uy, Initial residual = 1.09588e-06, Final residual = 6.87177e-08, No Iterations 4
smoothSolver:  Solving for Uz, Initial residual = 4.1917e-07, Final residual = 2.77424e-08, No Iterations 4
GAMG:  Solving for p, Initial residual = 4.90025e-07, Final residual = 2.67669e-08, No Iterations 2
time step continuity errors : sum local = 2.73429e-07, global = -8.63189e-09, cumulative = 0.518658
ExecutionTime = 744.33 s  ClockTime = 750 s

Time = 442

smoothSolver:  Solving for Ux, Initial residual = 5.10751e-07, Final residual = 3.34354e-08, No Iterations 4
smoothSolver:  Solving for Uy, Initial residual = 1.06562e-06, Final residual = 6.65802e-08, No Iterations 4
smoothSolver:  Solving for Uz, Initial residual = 4.07243e-07, Final residual = 2.69172e-08, No Iterations 4
GAMG:  Solving for p, Initial residual = 4.84607e-07, Final residual = 4.6846e-08, No Iterations 1
time step continuity errors : sum local = 4.7854e-07, global = -2.57579e-08, cumulative = 0.518658
ExecutionTime = 746.05 s  ClockTime = 751 s

Time = 443

smoothSolver:  Solving for Ux, Initial residual = 4.93932e-07, Final residual = 3.2365e-08, No Iterations 4
smoothSolver:  Solving for Uy, Initial residual = 1.02837e-06, Final residual = 6.44996e-08, No Iterations 4
smoothSolver:  Solving for Uz, Initial residual = 3.97779e-07, Final residual = 2.63506e-08, No Iterations 4
GAMG:  Solving for p, Initial residual = 4.62153e-07, Final residual = 2.53176e-08, No Iterations 2
time step continuity errors : sum local = 2.58623e-07, global = -8.05815e-09, cumulative = 0.518658
ExecutionTime = 747.89 s  ClockTime = 753 s

Time = 444

smoothSolver:  Solving for Ux, Initial residual = 4.88543e-07, Final residual = 3.20376e-08, No Iterations 4
smoothSolver:  Solving for Uy, Initial residual = 9.99925e-07, Final residual = 6.24894e-08, No Iterations 4
smoothSolver:  Solving for Uz, Initial residual = 3.86556e-07, Final residual = 2.5574e-08, No Iterations 4
GAMG:  Solving for p, Initial residual = 4.57096e-07, Final residual = 4.41607e-08, No Iterations 1
time step continuity errors : sum local = 4.51109e-07, global = -2.45153e-08, cumulative = 0.518658
ExecutionTime = 749.63 s  ClockTime = 755 s


SIMPLE solution converged in 444 iterations

End

