/*---------------------------------------------------------------------------*\
  =========                 |
  \\      /  F ield         | OpenFOAM: The Open Source CFD Toolbox
   \\    /   O peration     | Website:  https://openfoam.org
    \\  /    A nd           | Version:  7
     \\/     M anipulation  |
\*---------------------------------------------------------------------------*/
Build  : 7-1ff648926f77
Exec   : simpleFoam
Date   : Nov 16 2020
Time   : 10:45:28
Host   : "bn371671"
PID    : 18252
I/O    : uncollated
Case   : /hpc_atog/bsha219/OpenFoam-Tutorials/H12816
nProcs : 1
sigFpe : Enabling floating point exception trapping (FOAM_SIGFPE).
fileModificationChecking : Monitoring run-time modified files using timeStampMaster (fileModificationSkew 10)
allowSystemOperations : Allowing user-supplied system call operations

// * * * * * * * * * * * * * * * * * * * * * * * * * * * * * * * * * * * * * //
Create time

Create mesh for time = 0


SIMPLE: Convergence criteria found
        p: tolerance 1e-05
        U: tolerance 1e-05
        "(k|epsilon|omega|f|v2)": tolerance 0.001

Reading field p

Reading field U

Reading/calculating face flux field phi

Selecting incompressible transport model Newtonian
Selecting turbulence model type laminar
Selecting laminar stress model Stokes
No MRF models present

No finite volume options present

Starting time loop

Time = 0.01

smoothSolver:  Solving for Ux, Initial residual = 1, Final residual = 0.0472159, No Iterations 2
smoothSolver:  Solving for Uy, Initial residual = 1, Final residual = 0.0422616, No Iterations 2
smoothSolver:  Solving for Uz, Initial residual = 1, Final residual = 0.0318769, No Iterations 2
GAMG:  Solving for p, Initial residual = 1, Final residual = 0.0779561, No Iterations 1
GAMG:  Solving for p, Initial residual = 0.077217, Final residual = 0.00714854, No Iterations 4
time step continuity errors : sum local = 0.0815628, global = -0.0015867, cumulative = -0.0015867
ExecutionTime = 2.04 s  ClockTime = 2 s

Time = 0.02

smoothSolver:  Solving for Ux, Initial residual = 0.152803, Final residual = 0.00856761, No Iterations 1
smoothSolver:  Solving for Uy, Initial residual = 0.185333, Final residual = 0.0102493, No Iterations 1
smoothSolver:  Solving for Uz, Initial residual = 0.184583, Final residual = 0.00953775, No Iterations 1
GAMG:  Solving for p, Initial residual = 0.617834, Final residual = 0.0523704, No Iterations 2
GAMG:  Solving for p, Initial residual = 0.0687593, Final residual = 0.00532909, No Iterations 4
time step continuity errors : sum local = 0.013702, global = -0.000406573, cumulative = -0.00199327
ExecutionTime = 2.86 s  ClockTime = 3 s

Time = 0.03

smoothSolver:  Solving for Ux, Initial residual = 0.147778, Final residual = 0.00997408, No Iterations 1
smoothSolver:  Solving for Uy, Initial residual = 0.143928, Final residual = 0.0101221, No Iterations 1
smoothSolver:  Solving for Uz, Initial residual = 0.1463, Final residual = 0.0116521, No Iterations 1
GAMG:  Solving for p, Initial residual = 0.182289, Final residual = 0.0116766, No Iterations 3
GAMG:  Solving for p, Initial residual = 0.0380631, Final residual = 0.00202445, No Iterations 4
time step continuity errors : sum local = 0.0057083, global = 7.82701e-05, cumulative = -0.001915
ExecutionTime = 3.69 s  ClockTime = 4 s

Time = 0.04

smoothSolver:  Solving for Ux, Initial residual = 0.0993134, Final residual = 0.00787481, No Iterations 1
smoothSolver:  Solving for Uy, Initial residual = 0.0922903, Final residual = 0.00701433, No Iterations 1
smoothSolver:  Solving for Uz, Initial residual = 0.091551, Final residual = 0.00742021, No Iterations 1
GAMG:  Solving for p, Initial residual = 0.122534, Final residual = 0.0117447, No Iterations 2
GAMG:  Solving for p, Initial residual = 0.0276197, Final residual = 0.00264504, No Iterations 4
time step continuity errors : sum local = 0.00729179, global = 5.53778e-05, cumulative = -0.00185963
ExecutionTime = 4.47 s  ClockTime = 4 s

Time = 0.05

smoothSolver:  Solving for Ux, Initial residual = 0.0723296, Final residual = 0.0061567, No Iterations 1
smoothSolver:  Solving for Uy, Initial residual = 0.0701915, Final residual = 0.00575014, No Iterations 1
smoothSolver:  Solving for Uz, Initial residual = 0.0714821, Final residual = 0.00609971, No Iterations 1
GAMG:  Solving for p, Initial residual = 0.0911171, Final residual = 0.00749536, No Iterations 2
GAMG:  Solving for p, Initial residual = 0.0201427, Final residual = 0.00142022, No Iterations 4
time step continuity errors : sum local = 0.00385773, global = -0.000119146, cumulative = -0.00197877
ExecutionTime = 5.27 s  ClockTime = 5 s

Time = 0.06

smoothSolver:  Solving for Ux, Initial residual = 0.0570113, Final residual = 0.00568938, No Iterations 1
smoothSolver:  Solving for Uy, Initial residual = 0.0603191, Final residual = 0.00559225, No Iterations 1
smoothSolver:  Solving for Uz, Initial residual = 0.0668704, Final residual = 0.00601223, No Iterations 1
GAMG:  Solving for p, Initial residual = 0.0761253, Final residual = 0.00596727, No Iterations 2
GAMG:  Solving for p, Initial residual = 0.0173142, Final residual = 0.00132611, No Iterations 3
time step continuity errors : sum local = 0.00361611, global = -0.000374441, cumulative = -0.00235321
ExecutionTime = 6.06 s  ClockTime = 6 s

Time = 0.07

smoothSolver:  Solving for Ux, Initial residual = 0.0502075, Final residual = 0.000678413, No Iterations 2
smoothSolver:  Solving for Uy, Initial residual = 0.0543615, Final residual = 0.00525229, No Iterations 1
smoothSolver:  Solving for Uz, Initial residual = 0.0620165, Final residual = 0.0056735, No Iterations 1
GAMG:  Solving for p, Initial residual = 0.069013, Final residual = 0.00601733, No Iterations 2
GAMG:  Solving for p, Initial residual = 0.0156561, Final residual = 0.00147006, No Iterations 3
time step continuity errors : sum local = 0.00416084, global = -0.000267527, cumulative = -0.00262074
ExecutionTime = 6.82 s  ClockTime = 7 s

Time = 0.08

smoothSolver:  Solving for Ux, Initial residual = 0.0465634, Final residual = 0.000609891, No Iterations 2
smoothSolver:  Solving for Uy, Initial residual = 0.0513566, Final residual = 0.00500469, No Iterations 1
smoothSolver:  Solving for Uz, Initial residual = 0.0576317, Final residual = 0.00533693, No Iterations 1
GAMG:  Solving for p, Initial residual = 0.0624598, Final residual = 0.00499584, No Iterations 2
GAMG:  Solving for p, Initial residual = 0.0132495, Final residual = 0.00123584, No Iterations 3
time step continuity errors : sum local = 0.00368805, global = -0.000191668, cumulative = -0.00281241
ExecutionTime = 7.61 s  ClockTime = 8 s

Time = 0.09

smoothSolver:  Solving for Ux, Initial residual = 0.0432669, Final residual = 0.000569846, No Iterations 2
smoothSolver:  Solving for Uy, Initial residual = 0.0486198, Final residual = 0.00470294, No Iterations 1
smoothSolver:  Solving for Uz, Initial residual = 0.0544727, Final residual = 0.0051646, No Iterations 1
GAMG:  Solving for p, Initial residual = 0.0578998, Final residual = 0.00419245, No Iterations 2
GAMG:  Solving for p, Initial residual = 0.0111872, Final residual = 0.000896325, No Iterations 3
time step continuity errors : sum local = 0.00282143, global = -0.000160238, cumulative = -0.00297265
ExecutionTime = 8.39 s  ClockTime = 8 s

Time = 0.1

smoothSolver:  Solving for Ux, Initial residual = 0.0404868, Final residual = 0.000538205, No Iterations 2
smoothSolver:  Solving for Uy, Initial residual = 0.0461486, Final residual = 0.00450679, No Iterations 1
smoothSolver:  Solving for Uz, Initial residual = 0.0519007, Final residual = 0.00496304, No Iterations 1
GAMG:  Solving for p, Initial residual = 0.05365, Final residual = 0.00364689, No Iterations 2
GAMG:  Solving for p, Initial residual = 0.00962093, Final residual = 0.000730199, No Iterations 3
time step continuity errors : sum local = 0.00240881, global = -0.000125746, cumulative = -0.00309839
ExecutionTime = 9.17 s  ClockTime = 9 s

Time = 0.11

smoothSolver:  Solving for Ux, Initial residual = 0.0384558, Final residual = 0.000515045, No Iterations 2
smoothSolver:  Solving for Uy, Initial residual = 0.0439477, Final residual = 0.00437533, No Iterations 1
smoothSolver:  Solving for Uz, Initial residual = 0.0495146, Final residual = 0.00474231, No Iterations 1
GAMG:  Solving for p, Initial residual = 0.051784, Final residual = 0.00328937, No Iterations 2
GAMG:  Solving for p, Initial residual = 0.00852605, Final residual = 0.000647855, No Iterations 3
time step continuity errors : sum local = 0.00219746, global = -0.000105728, cumulative = -0.00320412
ExecutionTime = 9.95 s  ClockTime = 10 s

Time = 0.12

smoothSolver:  Solving for Ux, Initial residual = 0.0369871, Final residual = 0.000490816, No Iterations 2
smoothSolver:  Solving for Uy, Initial residual = 0.042179, Final residual = 0.000520381, No Iterations 2
smoothSolver:  Solving for Uz, Initial residual = 0.0477318, Final residual = 0.00451055, No Iterations 1
GAMG:  Solving for p, Initial residual = 0.0508171, Final residual = 0.00306169, No Iterations 2
GAMG:  Solving for p, Initial residual = 0.00774447, Final residual = 0.000589677, No Iterations 3
time step continuity errors : sum local = 0.00201871, global = -8.13112e-05, cumulative = -0.00328543
ExecutionTime = 10.75 s  ClockTime = 11 s

Time = 0.13

smoothSolver:  Solving for Ux, Initial residual = 0.0356477, Final residual = 0.000476444, No Iterations 2
smoothSolver:  Solving for Uy, Initial residual = 0.0403163, Final residual = 0.000498264, No Iterations 2
smoothSolver:  Solving for Uz, Initial residual = 0.0468974, Final residual = 0.00447737, No Iterations 1
GAMG:  Solving for p, Initial residual = 0.0489751, Final residual = 0.00276499, No Iterations 2
GAMG:  Solving for p, Initial residual = 0.0069419, Final residual = 0.000496685, No Iterations 3
time step continuity errors : sum local = 0.00177522, global = -7.98768e-05, cumulative = -0.00336531
ExecutionTime = 11.53 s  ClockTime = 11 s

Time = 0.14

smoothSolver:  Solving for Ux, Initial residual = 0.0344599, Final residual = 0.000466671, No Iterations 2
smoothSolver:  Solving for Uy, Initial residual = 0.0390312, Final residual = 0.000494237, No Iterations 2
smoothSolver:  Solving for Uz, Initial residual = 0.0465433, Final residual = 0.00451812, No Iterations 1
GAMG:  Solving for p, Initial residual = 0.0483498, Final residual = 0.00266542, No Iterations 2
GAMG:  Solving for p, Initial residual = 0.00664388, Final residual = 0.000462342, No Iterations 3
time step continuity errors : sum local = 0.00165607, global = -6.29366e-05, cumulative = -0.00342825
ExecutionTime = 12.35 s  ClockTime = 12 s

Time = 0.15

smoothSolver:  Solving for Ux, Initial residual = 0.0334336, Final residual = 0.000454962, No Iterations 2
smoothSolver:  Solving for Uy, Initial residual = 0.0377683, Final residual = 0.000488146, No Iterations 2
smoothSolver:  Solving for Uz, Initial residual = 0.0458273, Final residual = 0.00451499, No Iterations 1
GAMG:  Solving for p, Initial residual = 0.0463825, Final residual = 0.00243311, No Iterations 2
GAMG:  Solving for p, Initial residual = 0.00614561, Final residual = 0.000412966, No Iterations 3
time step continuity errors : sum local = 0.00153177, global = -6.06372e-05, cumulative = -0.00348888
ExecutionTime = 13.15 s  ClockTime = 13 s

Time = 0.16

smoothSolver:  Solving for Ux, Initial residual = 0.0322992, Final residual = 0.000447852, No Iterations 2
smoothSolver:  Solving for Uy, Initial residual = 0.0369931, Final residual = 0.000480974, No Iterations 2
smoothSolver:  Solving for Uz, Initial residual = 0.0451215, Final residual = 0.00448301, No Iterations 1
GAMG:  Solving for p, Initial residual = 0.0445112, Final residual = 0.00227109, No Iterations 2
GAMG:  Solving for p, Initial residual = 0.00574774, Final residual = 0.000382494, No Iterations 3
time step continuity errors : sum local = 0.00148222, global = -6.46817e-05, cumulative = -0.00355356
ExecutionTime = 13.98 s  ClockTime = 14 s

Time = 0.17

smoothSolver:  Solving for Ux, Initial residual = 0.0312087, Final residual = 0.000436513, No Iterations 2
smoothSolver:  Solving for Uy, Initial residual = 0.0364078, Final residual = 0.000476311, No Iterations 2
smoothSolver:  Solving for Uz, Initial residual = 0.0445908, Final residual = 0.000545816, No Iterations 2
GAMG:  Solving for p, Initial residual = 0.0441084, Final residual = 0.00226225, No Iterations 2
GAMG:  Solving for p, Initial residual = 0.00561615, Final residual = 0.00038266, No Iterations 3
time step continuity errors : sum local = 0.00151462, global = -6.31255e-05, cumulative = -0.00361669
ExecutionTime = 14.88 s  ClockTime = 15 s

Time = 0.18

smoothSolver:  Solving for Ux, Initial residual = 0.0303516, Final residual = 0.000432395, No Iterations 2
smoothSolver:  Solving for Uy, Initial residual = 0.0359264, Final residual = 0.000478091, No Iterations 2
smoothSolver:  Solving for Uz, Initial residual = 0.0442489, Final residual = 0.000544654, No Iterations 2
GAMG:  Solving for p, Initial residual = 0.0440697, Final residual = 0.00218812, No Iterations 2
GAMG:  Solving for p, Initial residual = 0.00541661, Final residual = 0.000380032, No Iterations 3
time step continuity errors : sum local = 0.00151621, global = -6.24459e-05, cumulative = -0.00367914
ExecutionTime = 15.72 s  ClockTime = 16 s

Time = 0.19

smoothSolver:  Solving for Ux, Initial residual = 0.0293148, Final residual = 0.000425839, No Iterations 2
smoothSolver:  Solving for Uy, Initial residual = 0.0354925, Final residual = 0.000478623, No Iterations 2
smoothSolver:  Solving for Uz, Initial residual = 0.0437568, Final residual = 0.000545219, No Iterations 2
GAMG:  Solving for p, Initial residual = 0.0441194, Final residual = 0.00215057, No Iterations 2
GAMG:  Solving for p, Initial residual = 0.00529179, Final residual = 0.000373607, No Iterations 3
time step continuity errors : sum local = 0.00150889, global = -5.98585e-05, cumulative = -0.00373899
ExecutionTime = 16.51 s  ClockTime = 16 s

Time = 0.2

smoothSolver:  Solving for Ux, Initial residual = 0.028474, Final residual = 0.000417289, No Iterations 2
smoothSolver:  Solving for Uy, Initial residual = 0.034975, Final residual = 0.000476771, No Iterations 2
smoothSolver:  Solving for Uz, Initial residual = 0.0436924, Final residual = 0.000546922, No Iterations 2
GAMG:  Solving for p, Initial residual = 0.0433783, Final residual = 0.00207539, No Iterations 2
GAMG:  Solving for p, Initial residual = 0.00510094, Final residual = 0.000364602, No Iterations 3
time step continuity errors : sum local = 0.00152954, global = -6.08122e-05, cumulative = -0.00379981
ExecutionTime = 17.34 s  ClockTime = 17 s

Time = 0.21

smoothSolver:  Solving for Ux, Initial residual = 0.0278187, Final residual = 0.000409273, No Iterations 2
smoothSolver:  Solving for Uy, Initial residual = 0.0346295, Final residual = 0.000474355, No Iterations 2
smoothSolver:  Solving for Uz, Initial residual = 0.0435419, Final residual = 0.000546062, No Iterations 2
GAMG:  Solving for p, Initial residual = 0.0425518, Final residual = 0.00199556, No Iterations 2
GAMG:  Solving for p, Initial residual = 0.00492734, Final residual = 0.000357225, No Iterations 3
time step continuity errors : sum local = 0.00154005, global = -5.59373e-05, cumulative = -0.00385574
ExecutionTime = 18.15 s  ClockTime = 18 s

Time = 0.22

smoothSolver:  Solving for Ux, Initial residual = 0.0270356, Final residual = 0.00040425, No Iterations 2
smoothSolver:  Solving for Uy, Initial residual = 0.0341505, Final residual = 0.000479032, No Iterations 2
smoothSolver:  Solving for Uz, Initial residual = 0.0431142, Final residual = 0.000540044, No Iterations 2
GAMG:  Solving for p, Initial residual = 0.0422033, Final residual = 0.00196657, No Iterations 2
GAMG:  Solving for p, Initial residual = 0.00481267, Final residual = 0.000357613, No Iterations 3
time step continuity errors : sum local = 0.00157387, global = -5.30553e-05, cumulative = -0.0039088
ExecutionTime = 18.94 s  ClockTime = 19 s

Time = 0.23

smoothSolver:  Solving for Ux, Initial residual = 0.0264777, Final residual = 0.000399686, No Iterations 2
smoothSolver:  Solving for Uy, Initial residual = 0.0338258, Final residual = 0.000483533, No Iterations 2
smoothSolver:  Solving for Uz, Initial residual = 0.04264, Final residual = 0.000542228, No Iterations 2
GAMG:  Solving for p, Initial residual = 0.0403057, Final residual = 0.00186771, No Iterations 2
GAMG:  Solving for p, Initial residual = 0.00455346, Final residual = 0.000343176, No Iterations 3
time step continuity errors : sum local = 0.00159066, global = -5.44754e-05, cumulative = -0.00396327
ExecutionTime = 19.74 s  ClockTime = 20 s

Time = 0.24

smoothSolver:  Solving for Ux, Initial residual = 0.0260892, Final residual = 0.000399587, No Iterations 2
smoothSolver:  Solving for Uy, Initial residual = 0.0333264, Final residual = 0.000480455, No Iterations 2
smoothSolver:  Solving for Uz, Initial residual = 0.0423106, Final residual = 0.000547055, No Iterations 2
GAMG:  Solving for p, Initial residual = 0.0398489, Final residual = 0.0018561, No Iterations 2
GAMG:  Solving for p, Initial residual = 0.00442344, Final residual = 0.000340824, No Iterations 3
time step continuity errors : sum local = 0.0016046, global = -5.40742e-05, cumulative = -0.00401735
ExecutionTime = 20.53 s  ClockTime = 20 s

Time = 0.25

smoothSolver:  Solving for Ux, Initial residual = 0.0257287, Final residual = 0.000398849, No Iterations 2
smoothSolver:  Solving for Uy, Initial residual = 0.0328175, Final residual = 0.000474107, No Iterations 2
smoothSolver:  Solving for Uz, Initial residual = 0.041971, Final residual = 0.000548028, No Iterations 2
GAMG:  Solving for p, Initial residual = 0.0399241, Final residual = 0.00186295, No Iterations 2
GAMG:  Solving for p, Initial residual = 0.00440109, Final residual = 0.000347303, No Iterations 3
time step continuity errors : sum local = 0.00164699, global = -5.04389e-05, cumulative = -0.00406779
ExecutionTime = 21.3 s  ClockTime = 21 s

Time = 0.26

smoothSolver:  Solving for Ux, Initial residual = 0.0255151, Final residual = 0.000399935, No Iterations 2
smoothSolver:  Solving for Uy, Initial residual = 0.0323692, Final residual = 0.000470619, No Iterations 2
smoothSolver:  Solving for Uz, Initial residual = 0.0419307, Final residual = 0.000555985, No Iterations 2
GAMG:  Solving for p, Initial residual = 0.0393156, Final residual = 0.00180113, No Iterations 2
GAMG:  Solving for p, Initial residual = 0.00424929, Final residual = 0.000333403, No Iterations 3
time step continuity errors : sum local = 0.00163049, global = -5.52532e-05, cumulative = -0.00412304
ExecutionTime = 22.09 s  ClockTime = 22 s

Time = 0.27

smoothSolver:  Solving for Ux, Initial residual = 0.0253135, Final residual = 0.000403431, No Iterations 2
smoothSolver:  Solving for Uy, Initial residual = 0.0318837, Final residual = 0.000468265, No Iterations 2
smoothSolver:  Solving for Uz, Initial residual = 0.0415357, Final residual = 0.000567234, No Iterations 2
GAMG:  Solving for p, Initial residual = 0.0378738, Final residual = 0.00172385, No Iterations 2
GAMG:  Solving for p, Initial residual = 0.00404418, Final residual = 0.00031907, No Iterations 3
time step continuity errors : sum local = 0.0016111, global = -5.70617e-05, cumulative = -0.0041801
ExecutionTime = 22.88 s  ClockTime = 23 s

Time = 0.28

smoothSolver:  Solving for Ux, Initial residual = 0.0252297, Final residual = 0.000408699, No Iterations 2
smoothSolver:  Solving for Uy, Initial residual = 0.0313073, Final residual = 0.000462325, No Iterations 2
smoothSolver:  Solving for Uz, Initial residual = 0.0409332, Final residual = 0.000571668, No Iterations 2
GAMG:  Solving for p, Initial residual = 0.0370992, Final residual = 0.00171622, No Iterations 2
GAMG:  Solving for p, Initial residual = 0.00395589, Final residual = 0.000317038, No Iterations 3
time step continuity errors : sum local = 0.00162725, global = -5.61363e-05, cumulative = -0.00423624
ExecutionTime = 23.64 s  ClockTime = 24 s

Time = 0.29

smoothSolver:  Solving for Ux, Initial residual = 0.0251204, Final residual = 0.000412, No Iterations 2
smoothSolver:  Solving for Uy, Initial residual = 0.0307873, Final residual = 0.000456342, No Iterations 2
smoothSolver:  Solving for Uz, Initial residual = 0.0403853, Final residual = 0.000570688, No Iterations 2
GAMG:  Solving for p, Initial residual = 0.0369996, Final residual = 0.00175267, No Iterations 2
GAMG:  Solving for p, Initial residual = 0.00394464, Final residual = 0.000322439, No Iterations 3
time step continuity errors : sum local = 0.00165696, global = -5.39593e-05, cumulative = -0.0042902
ExecutionTime = 24.42 s  ClockTime = 24 s

Time = 0.3

smoothSolver:  Solving for Ux, Initial residual = 0.0249541, Final residual = 0.000414783, No Iterations 2
smoothSolver:  Solving for Uy, Initial residual = 0.030471, Final residual = 0.00045317, No Iterations 2
smoothSolver:  Solving for Uz, Initial residual = 0.0400565, Final residual = 0.000576902, No Iterations 2
GAMG:  Solving for p, Initial residual = 0.0367964, Final residual = 0.00179511, No Iterations 2
GAMG:  Solving for p, Initial residual = 0.00398578, Final residual = 0.000330057, No Iterations 3
time step continuity errors : sum local = 0.00171809, global = -5.72209e-05, cumulative = -0.00434742
ExecutionTime = 25.22 s  ClockTime = 25 s

Time = 0.31

smoothSolver:  Solving for Ux, Initial residual = 0.0246836, Final residual = 0.000418376, No Iterations 2
smoothSolver:  Solving for Uy, Initial residual = 0.0302704, Final residual = 0.000457174, No Iterations 2
smoothSolver:  Solving for Uz, Initial residual = 0.0397172, Final residual = 0.000585031, No Iterations 2
GAMG:  Solving for p, Initial residual = 0.0365985, Final residual = 0.00180993, No Iterations 2
GAMG:  Solving for p, Initial residual = 0.00400064, Final residual = 0.000335197, No Iterations 3
time step continuity errors : sum local = 0.00176982, global = -5.80152e-05, cumulative = -0.00440543
ExecutionTime = 26 s  ClockTime = 26 s

Time = 0.32

smoothSolver:  Solving for Ux, Initial residual = 0.0244156, Final residual = 0.000423488, No Iterations 2
smoothSolver:  Solving for Uy, Initial residual = 0.030152, Final residual = 0.000460671, No Iterations 2
smoothSolver:  Solving for Uz, Initial residual = 0.0394051, Final residual = 0.000586303, No Iterations 2
GAMG:  Solving for p, Initial residual = 0.0361959, Final residual = 0.00182417, No Iterations 2
GAMG:  Solving for p, Initial residual = 0.00396087, Final residual = 0.000336532, No Iterations 3
time step continuity errors : sum local = 0.00180188, global = -5.47466e-05, cumulative = -0.00446018
ExecutionTime = 26.79 s  ClockTime = 27 s

Time = 0.33

smoothSolver:  Solving for Ux, Initial residual = 0.0242755, Final residual = 0.000428723, No Iterations 2
smoothSolver:  Solving for Uy, Initial residual = 0.0300901, Final residual = 0.000463644, No Iterations 2
smoothSolver:  Solving for Uz, Initial residual = 0.0392463, Final residual = 0.000586701, No Iterations 2
GAMG:  Solving for p, Initial residual = 0.0363609, Final residual = 0.00188781, No Iterations 2
GAMG:  Solving for p, Initial residual = 0.00400457, Final residual = 0.000349505, No Iterations 3
time step continuity errors : sum local = 0.00184875, global = -4.92937e-05, cumulative = -0.00450947
ExecutionTime = 27.58 s  ClockTime = 28 s

Time = 0.34

smoothSolver:  Solving for Ux, Initial residual = 0.0241348, Final residual = 0.000429947, No Iterations 2
smoothSolver:  Solving for Uy, Initial residual = 0.0300302, Final residual = 0.000473583, No Iterations 2
smoothSolver:  Solving for Uz, Initial residual = 0.0392209, Final residual = 0.000598327, No Iterations 2
GAMG:  Solving for p, Initial residual = 0.0364225, Final residual = 0.00194378, No Iterations 2
GAMG:  Solving for p, Initial residual = 0.00401836, Final residual = 0.000352612, No Iterations 3
time step continuity errors : sum local = 0.00186306, global = -4.68602e-05, cumulative = -0.00455634
ExecutionTime = 28.34 s  ClockTime = 28 s

Time = 0.35

smoothSolver:  Solving for Ux, Initial residual = 0.0240387, Final residual = 0.000429405, No Iterations 2
smoothSolver:  Solving for Uy, Initial residual = 0.029906, Final residual = 0.000481258, No Iterations 2
smoothSolver:  Solving for Uz, Initial residual = 0.0394872, Final residual = 0.000611776, No Iterations 2
GAMG:  Solving for p, Initial residual = 0.0368883, Final residual = 0.00198186, No Iterations 2
GAMG:  Solving for p, Initial residual = 0.004054, Final residual = 0.000356005, No Iterations 3
time step continuity errors : sum local = 0.00187325, global = -4.34901e-05, cumulative = -0.00459983
ExecutionTime = 29.13 s  ClockTime = 29 s

Time = 0.36

smoothSolver:  Solving for Ux, Initial residual = 0.0240451, Final residual = 0.000425253, No Iterations 2
smoothSolver:  Solving for Uy, Initial residual = 0.0298331, Final residual = 0.000484439, No Iterations 2
smoothSolver:  Solving for Uz, Initial residual = 0.0398766, Final residual = 0.00062825, No Iterations 2
GAMG:  Solving for p, Initial residual = 0.0368339, Final residual = 0.00198521, No Iterations 2
GAMG:  Solving for p, Initial residual = 0.00407498, Final residual = 0.000356963, No Iterations 3
time step continuity errors : sum local = 0.00190545, global = -4.15087e-05, cumulative = -0.00464133
ExecutionTime = 29.91 s  ClockTime = 30 s

Time = 0.37

smoothSolver:  Solving for Ux, Initial residual = 0.0241198, Final residual = 0.000423125, No Iterations 2
smoothSolver:  Solving for Uy, Initial residual = 0.0297854, Final residual = 0.00048352, No Iterations 2
smoothSolver:  Solving for Uz, Initial residual = 0.0402906, Final residual = 0.000643265, No Iterations 2
GAMG:  Solving for p, Initial residual = 0.0371019, Final residual = 0.00198995, No Iterations 2
GAMG:  Solving for p, Initial residual = 0.00409265, Final residual = 0.000354199, No Iterations 3
time step continuity errors : sum local = 0.00192219, global = -4.06085e-05, cumulative = -0.00468194
ExecutionTime = 30.67 s  ClockTime = 31 s

Time = 0.38

smoothSolver:  Solving for Ux, Initial residual = 0.0242782, Final residual = 0.000421852, No Iterations 2
smoothSolver:  Solving for Uy, Initial residual = 0.0298633, Final residual = 0.000482038, No Iterations 2
smoothSolver:  Solving for Uz, Initial residual = 0.0406422, Final residual = 0.000649154, No Iterations 2
GAMG:  Solving for p, Initial residual = 0.0376456, Final residual = 0.00198251, No Iterations 2
GAMG:  Solving for p, Initial residual = 0.00410092, Final residual = 0.000348363, No Iterations 3
time step continuity errors : sum local = 0.00192037, global = -4.00297e-05, cumulative = -0.00472197
ExecutionTime = 31.45 s  ClockTime = 31 s

Time = 0.39

smoothSolver:  Solving for Ux, Initial residual = 0.0244525, Final residual = 0.000423574, No Iterations 2
smoothSolver:  Solving for Uy, Initial residual = 0.0299894, Final residual = 0.00047953, No Iterations 2
smoothSolver:  Solving for Uz, Initial residual = 0.0407977, Final residual = 0.000653654, No Iterations 2
GAMG:  Solving for p, Initial residual = 0.0382275, Final residual = 0.00199247, No Iterations 2
GAMG:  Solving for p, Initial residual = 0.00413389, Final residual = 0.000343445, No Iterations 3
time step continuity errors : sum local = 0.00190935, global = -4.00004e-05, cumulative = -0.00476197
ExecutionTime = 32.24 s  ClockTime = 32 s

Time = 0.4

smoothSolver:  Solving for Ux, Initial residual = 0.0245074, Final residual = 0.000422737, No Iterations 2
smoothSolver:  Solving for Uy, Initial residual = 0.0300381, Final residual = 0.000475174, No Iterations 2
smoothSolver:  Solving for Uz, Initial residual = 0.0408617, Final residual = 0.000651026, No Iterations 2
GAMG:  Solving for p, Initial residual = 0.0387195, Final residual = 0.00201216, No Iterations 2
GAMG:  Solving for p, Initial residual = 0.00416544, Final residual = 0.000349149, No Iterations 3
time step continuity errors : sum local = 0.0019687, global = -3.86308e-05, cumulative = -0.0048006
ExecutionTime = 33 s  ClockTime = 33 s

Time = 0.41

smoothSolver:  Solving for Ux, Initial residual = 0.024586, Final residual = 0.000420804, No Iterations 2
smoothSolver:  Solving for Uy, Initial residual = 0.0300556, Final residual = 0.000470383, No Iterations 2
smoothSolver:  Solving for Uz, Initial residual = 0.0407023, Final residual = 0.000648871, No Iterations 2
GAMG:  Solving for p, Initial residual = 0.0379484, Final residual = 0.00197428, No Iterations 2
GAMG:  Solving for p, Initial residual = 0.00407221, Final residual = 0.00034503, No Iterations 3
time step continuity errors : sum local = 0.00202771, global = -4.10251e-05, cumulative = -0.00484163
ExecutionTime = 33.78 s  ClockTime = 34 s

Time = 0.42

smoothSolver:  Solving for Ux, Initial residual = 0.0245298, Final residual = 0.000418412, No Iterations 2
smoothSolver:  Solving for Uy, Initial residual = 0.0299306, Final residual = 0.000464318, No Iterations 2
smoothSolver:  Solving for Uz, Initial residual = 0.0404789, Final residual = 0.000646634, No Iterations 2
GAMG:  Solving for p, Initial residual = 0.0378542, Final residual = 0.00196938, No Iterations 2
GAMG:  Solving for p, Initial residual = 0.00402396, Final residual = 0.000339681, No Iterations 3
time step continuity errors : sum local = 0.00202769, global = -4.05187e-05, cumulative = -0.00488215
ExecutionTime = 34.57 s  ClockTime = 34 s

Time = 0.43

smoothSolver:  Solving for Ux, Initial residual = 0.0243726, Final residual = 0.000412498, No Iterations 2
smoothSolver:  Solving for Uy, Initial residual = 0.0298991, Final residual = 0.000460745, No Iterations 2
smoothSolver:  Solving for Uz, Initial residual = 0.0403749, Final residual = 0.000642459, No Iterations 2
GAMG:  Solving for p, Initial residual = 0.0383061, Final residual = 0.00197203, No Iterations 2
GAMG:  Solving for p, Initial residual = 0.00401183, Final residual = 0.000332363, No Iterations 3
time step continuity errors : sum local = 0.0020024, global = -4.12451e-05, cumulative = -0.00492339
ExecutionTime = 35.33 s  ClockTime = 35 s

Time = 0.44

smoothSolver:  Solving for Ux, Initial residual = 0.0241625, Final residual = 0.000411299, No Iterations 2
smoothSolver:  Solving for Uy, Initial residual = 0.0299062, Final residual = 0.000463963, No Iterations 2
smoothSolver:  Solving for Uz, Initial residual = 0.0404003, Final residual = 0.000641424, No Iterations 2
GAMG:  Solving for p, Initial residual = 0.0390098, Final residual = 0.00196836, No Iterations 2
GAMG:  Solving for p, Initial residual = 0.00400809, Final residual = 0.000328905, No Iterations 3
time step continuity errors : sum local = 0.00200112, global = -4.54555e-05, cumulative = -0.00496885
ExecutionTime = 36.11 s  ClockTime = 36 s

Time = 0.45

smoothSolver:  Solving for Ux, Initial residual = 0.0239868, Final residual = 0.00041269, No Iterations 2
smoothSolver:  Solving for Uy, Initial residual = 0.0299556, Final residual = 0.000475391, No Iterations 2
smoothSolver:  Solving for Uz, Initial residual = 0.0404723, Final residual = 0.000643321, No Iterations 2
GAMG:  Solving for p, Initial residual = 0.0393828, Final residual = 0.00198644, No Iterations 2
GAMG:  Solving for p, Initial residual = 0.00401638, Final residual = 0.000329594, No Iterations 3
time step continuity errors : sum local = 0.00202178, global = -5.03959e-05, cumulative = -0.00501924
ExecutionTime = 36.89 s  ClockTime = 37 s

Time = 0.46

smoothSolver:  Solving for Ux, Initial residual = 0.0238654, Final residual = 0.000414571, No Iterations 2
smoothSolver:  Solving for Uy, Initial residual = 0.0299063, Final residual = 0.000486207, No Iterations 2
smoothSolver:  Solving for Uz, Initial residual = 0.0406729, Final residual = 0.000642744, No Iterations 2
GAMG:  Solving for p, Initial residual = 0.0403913, Final residual = 0.00204086, No Iterations 2
GAMG:  Solving for p, Initial residual = 0.00408373, Final residual = 0.000343535, No Iterations 3
time step continuity errors : sum local = 0.00207792, global = -4.21562e-05, cumulative = -0.0050614
ExecutionTime = 37.65 s  ClockTime = 38 s

Time = 0.47

smoothSolver:  Solving for Ux, Initial residual = 0.0237249, Final residual = 0.000413162, No Iterations 2
smoothSolver:  Solving for Uy, Initial residual = 0.0298715, Final residual = 0.000491562, No Iterations 2
smoothSolver:  Solving for Uz, Initial residual = 0.0408024, Final residual = 0.00064284, No Iterations 2
GAMG:  Solving for p, Initial residual = 0.0401664, Final residual = 0.00204324, No Iterations 2
GAMG:  Solving for p, Initial residual = 0.00404233, Final residual = 0.000348444, No Iterations 3
time step continuity errors : sum local = 0.00214034, global = -4.12176e-05, cumulative = -0.00510262
ExecutionTime = 38.44 s  ClockTime = 38 s

Time = 0.48

smoothSolver:  Solving for Ux, Initial residual = 0.0235703, Final residual = 0.000410075, No Iterations 2
smoothSolver:  Solving for Uy, Initial residual = 0.0297392, Final residual = 0.000490812, No Iterations 2
smoothSolver:  Solving for Uz, Initial residual = 0.040793, Final residual = 0.000641969, No Iterations 2
GAMG:  Solving for p, Initial residual = 0.0402655, Final residual = 0.0020935, No Iterations 2
GAMG:  Solving for p, Initial residual = 0.00407433, Final residual = 0.000352177, No Iterations 3
time step continuity errors : sum local = 0.00215885, global = -3.9392e-05, cumulative = -0.00514201
ExecutionTime = 39.22 s  ClockTime = 39 s

Time = 0.49

smoothSolver:  Solving for Ux, Initial residual = 0.0233425, Final residual = 0.000407038, No Iterations 2
smoothSolver:  Solving for Uy, Initial residual = 0.0296267, Final residual = 0.000487931, No Iterations 2
smoothSolver:  Solving for Uz, Initial residual = 0.0406044, Final residual = 0.000636342, No Iterations 2
GAMG:  Solving for p, Initial residual = 0.0400859, Final residual = 0.00213559, No Iterations 2
GAMG:  Solving for p, Initial residual = 0.00408745, Final residual = 0.000360546, No Iterations 3
time step continuity errors : sum local = 0.00224043, global = -3.91425e-05, cumulative = -0.00518115
ExecutionTime = 40 s  ClockTime = 40 s

Time = 0.5

smoothSolver:  Solving for Ux, Initial residual = 0.0232122, Final residual = 0.000405665, No Iterations 2
smoothSolver:  Solving for Uy, Initial residual = 0.0295014, Final residual = 0.0004871, No Iterations 2
smoothSolver:  Solving for Uz, Initial residual = 0.0402525, Final residual = 0.000630483, No Iterations 2
GAMG:  Solving for p, Initial residual = 0.0405731, Final residual = 0.00220875, No Iterations 2
GAMG:  Solving for p, Initial residual = 0.00420219, Final residual = 0.000379443, No Iterations 3
time step continuity errors : sum local = 0.00236882, global = -4.11434e-05, cumulative = -0.0052223
ExecutionTime = 41.46 s  ClockTime = 42 s

Time = 0.51

smoothSolver:  Solving for Ux, Initial residual = 0.023181, Final residual = 0.000405287, No Iterations 2
smoothSolver:  Solving for Uy, Initial residual = 0.0294836, Final residual = 0.000486032, No Iterations 2
smoothSolver:  Solving for Uz, Initial residual = 0.039723, Final residual = 0.000626315, No Iterations 2
GAMG:  Solving for p, Initial residual = 0.0408594, Final residual = 0.00228289, No Iterations 2
GAMG:  Solving for p, Initial residual = 0.00431979, Final residual = 0.000398698, No Iterations 3
time step continuity errors : sum local = 0.00249726, global = -4.59224e-05, cumulative = -0.00526822
ExecutionTime = 42.25 s  ClockTime = 42 s

Time = 0.52

smoothSolver:  Solving for Ux, Initial residual = 0.02322, Final residual = 0.000404365, No Iterations 2
smoothSolver:  Solving for Uy, Initial residual = 0.0292656, Final residual = 0.000484458, No Iterations 2
smoothSolver:  Solving for Uz, Initial residual = 0.0392297, Final residual = 0.000625696, No Iterations 2
GAMG:  Solving for p, Initial residual = 0.0409863, Final residual = 0.00234157, No Iterations 2
GAMG:  Solving for p, Initial residual = 0.00440182, Final residual = 0.00041748, No Iterations 3
time step continuity errors : sum local = 0.00264132, global = -5.00406e-05, cumulative = -0.00531826
ExecutionTime = 43.02 s  ClockTime = 43 s

Time = 0.53

smoothSolver:  Solving for Ux, Initial residual = 0.0232669, Final residual = 0.000409367, No Iterations 2
smoothSolver:  Solving for Uy, Initial residual = 0.0290719, Final residual = 0.000484939, No Iterations 2
smoothSolver:  Solving for Uz, Initial residual = 0.0385866, Final residual = 0.000625505, No Iterations 2
GAMG:  Solving for p, Initial residual = 0.041169, Final residual = 0.00241666, No Iterations 2
GAMG:  Solving for p, Initial residual = 0.00448484, Final residual = 0.000429598, No Iterations 3
time step continuity errors : sum local = 0.0027227, global = -5.35155e-05, cumulative = -0.00537177
ExecutionTime = 43.82 s  ClockTime = 44 s

Time = 0.54

smoothSolver:  Solving for Ux, Initial residual = 0.0233222, Final residual = 0.000418761, No Iterations 2
smoothSolver:  Solving for Uy, Initial residual = 0.0289951, Final residual = 0.000490333, No Iterations 2
smoothSolver:  Solving for Uz, Initial residual = 0.03801, Final residual = 0.000628728, No Iterations 2
GAMG:  Solving for p, Initial residual = 0.0416394, Final residual = 0.00245069, No Iterations 2
GAMG:  Solving for p, Initial residual = 0.00454419, Final residual = 0.00042671, No Iterations 3
time step continuity errors : sum local = 0.00271728, global = -5.87061e-05, cumulative = -0.00543048
ExecutionTime = 44.6 s  ClockTime = 45 s

Time = 0.55

smoothSolver:  Solving for Ux, Initial residual = 0.0234505, Final residual = 0.000424419, No Iterations 2
smoothSolver:  Solving for Uy, Initial residual = 0.0288106, Final residual = 0.00049497, No Iterations 2
smoothSolver:  Solving for Uz, Initial residual = 0.0377545, Final residual = 0.000630778, No Iterations 2
GAMG:  Solving for p, Initial residual = 0.0416252, Final residual = 0.00245986, No Iterations 2
GAMG:  Solving for p, Initial residual = 0.00454297, Final residual = 0.00042227, No Iterations 3
time step continuity errors : sum local = 0.00272258, global = -6.36854e-05, cumulative = -0.00549417
ExecutionTime = 45.36 s  ClockTime = 46 s

Time = 0.56

smoothSolver:  Solving for Ux, Initial residual = 0.0234127, Final residual = 0.000422911, No Iterations 2
smoothSolver:  Solving for Uy, Initial residual = 0.0285522, Final residual = 0.000496001, No Iterations 2
smoothSolver:  Solving for Uz, Initial residual = 0.0375563, Final residual = 0.000629203, No Iterations 2
GAMG:  Solving for p, Initial residual = 0.041977, Final residual = 0.00247664, No Iterations 2
GAMG:  Solving for p, Initial residual = 0.00456923, Final residual = 0.00041856, No Iterations 3
time step continuity errors : sum local = 0.00272261, global = -6.17074e-05, cumulative = -0.00555587
ExecutionTime = 46.14 s  ClockTime = 46 s

Time = 0.57

smoothSolver:  Solving for Ux, Initial residual = 0.0233411, Final residual = 0.000423385, No Iterations 2
smoothSolver:  Solving for Uy, Initial residual = 0.0283253, Final residual = 0.00049447, No Iterations 2
smoothSolver:  Solving for Uz, Initial residual = 0.0373356, Final residual = 0.000626932, No Iterations 2
GAMG:  Solving for p, Initial residual = 0.0424234, Final residual = 0.00250274, No Iterations 2
GAMG:  Solving for p, Initial residual = 0.00458824, Final residual = 0.000412273, No Iterations 3
time step continuity errors : sum local = 0.00269421, global = -6.88077e-05, cumulative = -0.00562468
ExecutionTime = 46.92 s  ClockTime = 47 s

Time = 0.58

smoothSolver:  Solving for Ux, Initial residual = 0.0232867, Final residual = 0.000423781, No Iterations 2
smoothSolver:  Solving for Uy, Initial residual = 0.0281473, Final residual = 0.000489665, No Iterations 2
smoothSolver:  Solving for Uz, Initial residual = 0.0372286, Final residual = 0.00062112, No Iterations 2
GAMG:  Solving for p, Initial residual = 0.0428001, Final residual = 0.00253061, No Iterations 2
GAMG:  Solving for p, Initial residual = 0.00461866, Final residual = 0.000413769, No Iterations 3
time step continuity errors : sum local = 0.00272744, global = -8.27679e-05, cumulative = -0.00570745
ExecutionTime = 47.68 s  ClockTime = 48 s

Time = 0.59

smoothSolver:  Solving for Ux, Initial residual = 0.0232259, Final residual = 0.000419905, No Iterations 2
smoothSolver:  Solving for Uy, Initial residual = 0.0280105, Final residual = 0.000485321, No Iterations 2
smoothSolver:  Solving for Uz, Initial residual = 0.0372349, Final residual = 0.000616017, No Iterations 2
GAMG:  Solving for p, Initial residual = 0.0427577, Final residual = 0.00252699, No Iterations 2
GAMG:  Solving for p, Initial residual = 0.0046054, Final residual = 0.000417883, No Iterations 3
time step continuity errors : sum local = 0.00282123, global = -8.78369e-05, cumulative = -0.00579529
ExecutionTime = 48.46 s  ClockTime = 49 s

Time = 0.6

smoothSolver:  Solving for Ux, Initial residual = 0.0231599, Final residual = 0.000412856, No Iterations 2
smoothSolver:  Solving for Uy, Initial residual = 0.0279578, Final residual = 0.000484798, No Iterations 2
smoothSolver:  Solving for Uz, Initial residual = 0.0372508, Final residual = 0.000615359, No Iterations 2
GAMG:  Solving for p, Initial residual = 0.0433194, Final residual = 0.00252684, No Iterations 2
GAMG:  Solving for p, Initial residual = 0.00462556, Final residual = 0.000427903, No Iterations 3
time step continuity errors : sum local = 0.00292159, global = -8.25067e-05, cumulative = -0.00587779
ExecutionTime = 49.24 s  ClockTime = 49 s

Time = 0.61

smoothSolver:  Solving for Ux, Initial residual = 0.0230727, Final residual = 0.000406009, No Iterations 2
smoothSolver:  Solving for Uy, Initial residual = 0.027939, Final residual = 0.000486643, No Iterations 2
smoothSolver:  Solving for Uz, Initial residual = 0.0372213, Final residual = 0.00061661, No Iterations 2
GAMG:  Solving for p, Initial residual = 0.0451752, Final residual = 0.00258214, No Iterations 2
GAMG:  Solving for p, Initial residual = 0.00473984, Final residual = 0.000445639, No Iterations 3
time step continuity errors : sum local = 0.00301594, global = -7.39696e-05, cumulative = -0.00595176
ExecutionTime = 50 s  ClockTime = 50 s

Time = 0.62

smoothSolver:  Solving for Ux, Initial residual = 0.0229758, Final residual = 0.000403533, No Iterations 2
smoothSolver:  Solving for Uy, Initial residual = 0.027832, Final residual = 0.00048839, No Iterations 2
smoothSolver:  Solving for Uz, Initial residual = 0.0371621, Final residual = 0.000619363, No Iterations 2
GAMG:  Solving for p, Initial residual = 0.0455475, Final residual = 0.00255244, No Iterations 2
GAMG:  Solving for p, Initial residual = 0.00470225, Final residual = 0.000437897, No Iterations 3
time step continuity errors : sum local = 0.00301118, global = -7.15813e-05, cumulative = -0.00602334
ExecutionTime = 50.78 s  ClockTime = 51 s

Time = 0.63

smoothSolver:  Solving for Ux, Initial residual = 0.0230205, Final residual = 0.000403203, No Iterations 2
smoothSolver:  Solving for Uy, Initial residual = 0.0277266, Final residual = 0.000487487, No Iterations 2
smoothSolver:  Solving for Uz, Initial residual = 0.0371012, Final residual = 0.000617166, No Iterations 2
GAMG:  Solving for p, Initial residual = 0.0453678, Final residual = 0.00246838, No Iterations 2
GAMG:  Solving for p, Initial residual = 0.00459111, Final residual = 0.000413006, No Iterations 3
time step continuity errors : sum local = 0.00292304, global = -6.77078e-05, cumulative = -0.00609105
ExecutionTime = 51.57 s  ClockTime = 52 s

Time = 0.64

smoothSolver:  Solving for Ux, Initial residual = 0.0231581, Final residual = 0.000405153, No Iterations 2
smoothSolver:  Solving for Uy, Initial residual = 0.02764, Final residual = 0.000483916, No Iterations 2
smoothSolver:  Solving for Uz, Initial residual = 0.0369519, Final residual = 0.000614457, No Iterations 2
GAMG:  Solving for p, Initial residual = 0.0464846, Final residual = 0.00249272, No Iterations 2
GAMG:  Solving for p, Initial residual = 0.00469084, Final residual = 0.000414346, No Iterations 3
time step continuity errors : sum local = 0.00290427, global = -6.05491e-05, cumulative = -0.0061516
ExecutionTime = 52.34 s  ClockTime = 53 s

Time = 0.65

smoothSolver:  Solving for Ux, Initial residual = 0.0233614, Final residual = 0.000411099, No Iterations 2
smoothSolver:  Solving for Uy, Initial residual = 0.027567, Final residual = 0.000482687, No Iterations 2
smoothSolver:  Solving for Uz, Initial residual = 0.0368897, Final residual = 0.000614923, No Iterations 2
GAMG:  Solving for p, Initial residual = 0.0464844, Final residual = 0.00249449, No Iterations 2
GAMG:  Solving for p, Initial residual = 0.00467934, Final residual = 0.000409007, No Iterations 3
time step continuity errors : sum local = 0.00290746, global = -6.02109e-05, cumulative = -0.00621181
ExecutionTime = 53.12 s  ClockTime = 53 s

Time = 0.66

smoothSolver:  Solving for Ux, Initial residual = 0.0235616, Final residual = 0.000418477, No Iterations 2
smoothSolver:  Solving for Uy, Initial residual = 0.0274804, Final residual = 0.000478926, No Iterations 2
smoothSolver:  Solving for Uz, Initial residual = 0.0369391, Final residual = 0.000617195, No Iterations 2
GAMG:  Solving for p, Initial residual = 0.0471245, Final residual = 0.00253736, No Iterations 2
GAMG:  Solving for p, Initial residual = 0.00468295, Final residual = 0.000412168, No Iterations 3
time step continuity errors : sum local = 0.00295571, global = -5.3426e-05, cumulative = -0.00626524
ExecutionTime = 53.91 s  ClockTime = 54 s

Time = 0.67

smoothSolver:  Solving for Ux, Initial residual = 0.0237531, Final residual = 0.000422301, No Iterations 2
smoothSolver:  Solving for Uy, Initial residual = 0.0274133, Final residual = 0.000471727, No Iterations 2
smoothSolver:  Solving for Uz, Initial residual = 0.0370087, Final residual = 0.000617363, No Iterations 2
GAMG:  Solving for p, Initial residual = 0.0474138, Final residual = 0.00254589, No Iterations 2
GAMG:  Solving for p, Initial residual = 0.00465505, Final residual = 0.000416625, No Iterations 3
time step continuity errors : sum local = 0.00305085, global = -5.06489e-05, cumulative = -0.00631589
ExecutionTime = 54.67 s  ClockTime = 55 s

Time = 0.68

smoothSolver:  Solving for Ux, Initial residual = 0.0240473, Final residual = 0.00042763, No Iterations 2
smoothSolver:  Solving for Uy, Initial residual = 0.0274911, Final residual = 0.000469591, No Iterations 2
smoothSolver:  Solving for Uz, Initial residual = 0.0370425, Final residual = 0.000610937, No Iterations 2
GAMG:  Solving for p, Initial residual = 0.0467706, Final residual = 0.00250484, No Iterations 2
GAMG:  Solving for p, Initial residual = 0.00456009, Final residual = 0.000418755, No Iterations 3
time step continuity errors : sum local = 0.0031612, global = -4.95061e-05, cumulative = -0.00636539
ExecutionTime = 55.46 s  ClockTime = 56 s

Time = 0.69

smoothSolver:  Solving for Ux, Initial residual = 0.0243081, Final residual = 0.00043385, No Iterations 2
smoothSolver:  Solving for Uy, Initial residual = 0.027737, Final residual = 0.000473753, No Iterations 2
smoothSolver:  Solving for Uz, Initial residual = 0.0371151, Final residual = 0.000606695, No Iterations 2
GAMG:  Solving for p, Initial residual = 0.0467716, Final residual = 0.00252593, No Iterations 2
GAMG:  Solving for p, Initial residual = 0.00456397, Final residual = 0.00042473, No Iterations 3
time step continuity errors : sum local = 0.00327438, global = -4.57065e-05, cumulative = -0.0064111
ExecutionTime = 56.25 s  ClockTime = 56 s

Time = 0.7

smoothSolver:  Solving for Ux, Initial residual = 0.0246316, Final residual = 0.000444135, No Iterations 2
smoothSolver:  Solving for Uy, Initial residual = 0.0280842, Final residual = 0.000481239, No Iterations 2
smoothSolver:  Solving for Uz, Initial residual = 0.0372013, Final residual = 0.000607479, No Iterations 2
GAMG:  Solving for p, Initial residual = 0.0465117, Final residual = 0.00252452, No Iterations 2
GAMG:  Solving for p, Initial residual = 0.00450291, Final residual = 0.00040902, No Iterations 3
time step continuity errors : sum local = 0.00320504, global = -4.54643e-05, cumulative = -0.00645656
ExecutionTime = 57.03 s  ClockTime = 57 s

Time = 0.71

smoothSolver:  Solving for Ux, Initial residual = 0.024976, Final residual = 0.000453945, No Iterations 2
smoothSolver:  Solving for Uy, Initial residual = 0.0284324, Final residual = 0.000493152, No Iterations 2
smoothSolver:  Solving for Uz, Initial residual = 0.0371332, Final residual = 0.000612731, No Iterations 2
GAMG:  Solving for p, Initial residual = 0.0457275, Final residual = 0.00254193, No Iterations 2
GAMG:  Solving for p, Initial residual = 0.00447848, Final residual = 0.000405576, No Iterations 3
time step continuity errors : sum local = 0.00325647, global = -4.59785e-05, cumulative = -0.00650254
ExecutionTime = 57.82 s  ClockTime = 58 s

Time = 0.72

smoothSolver:  Solving for Ux, Initial residual = 0.0253487, Final residual = 0.000465013, No Iterations 2
smoothSolver:  Solving for Uy, Initial residual = 0.0288233, Final residual = 0.000506988, No Iterations 2
smoothSolver:  Solving for Uz, Initial residual = 0.0371061, Final residual = 0.000618213, No Iterations 2
GAMG:  Solving for p, Initial residual = 0.0454203, Final residual = 0.00259404, No Iterations 2
GAMG:  Solving for p, Initial residual = 0.00451142, Final residual = 0.000411846, No Iterations 3
time step continuity errors : sum local = 0.00335101, global = -4.02847e-05, cumulative = -0.00654283
ExecutionTime = 58.62 s  ClockTime = 59 s

Time = 0.73

smoothSolver:  Solving for Ux, Initial residual = 0.0257174, Final residual = 0.000474377, No Iterations 2
smoothSolver:  Solving for Uy, Initial residual = 0.0293425, Final residual = 0.000520657, No Iterations 2
smoothSolver:  Solving for Uz, Initial residual = 0.037164, Final residual = 0.00061955, No Iterations 2
GAMG:  Solving for p, Initial residual = 0.0455778, Final residual = 0.00264925, No Iterations 2
GAMG:  Solving for p, Initial residual = 0.0045766, Final residual = 0.0004289, No Iterations 3
time step continuity errors : sum local = 0.0035119, global = -4.27884e-05, cumulative = -0.00658561
ExecutionTime = 59.38 s  ClockTime = 60 s

Time = 0.74

smoothSolver:  Solving for Ux, Initial residual = 0.0260842, Final residual = 0.000478582, No Iterations 2
smoothSolver:  Solving for Uy, Initial residual = 0.0298112, Final residual = 0.000532028, No Iterations 2
smoothSolver:  Solving for Uz, Initial residual = 0.0372827, Final residual = 0.000615157, No Iterations 2
GAMG:  Solving for p, Initial residual = 0.0465842, Final residual = 0.00272078, No Iterations 2
GAMG:  Solving for p, Initial residual = 0.00467603, Final residual = 0.00045299, No Iterations 3
time step continuity errors : sum local = 0.00371226, global = -4.34468e-05, cumulative = -0.00662906
ExecutionTime = 60.17 s  ClockTime = 60 s

Time = 0.75

smoothSolver:  Solving for Ux, Initial residual = 0.0263874, Final residual = 0.000481409, No Iterations 2
smoothSolver:  Solving for Uy, Initial residual = 0.0301825, Final residual = 0.000538457, No Iterations 2
smoothSolver:  Solving for Uz, Initial residual = 0.0373586, Final residual = 0.000611974, No Iterations 2
GAMG:  Solving for p, Initial residual = 0.0471218, Final residual = 0.00276329, No Iterations 2
GAMG:  Solving for p, Initial residual = 0.00475208, Final residual = 0.000474999, No Iterations 3
time step continuity errors : sum local = 0.0039337, global = -4.59475e-05, cumulative = -0.00667501
ExecutionTime = 60.95 s  ClockTime = 61 s

Time = 0.76

smoothSolver:  Solving for Ux, Initial residual = 0.0266046, Final residual = 0.000486986, No Iterations 2
smoothSolver:  Solving for Uy, Initial residual = 0.0303572, Final residual = 0.000544311, No Iterations 2
smoothSolver:  Solving for Uz, Initial residual = 0.037563, Final residual = 0.000611952, No Iterations 2
GAMG:  Solving for p, Initial residual = 0.0484511, Final residual = 0.00283015, No Iterations 2
GAMG:  Solving for p, Initial residual = 0.00489936, Final residual = 0.000283346, No Iterations 4
time step continuity errors : sum local = 0.00232614, global = -2.92564e-05, cumulative = -0.00670426
ExecutionTime = 61.75 s  ClockTime = 62 s

Time = 0.77

smoothSolver:  Solving for Ux, Initial residual = 0.026661, Final residual = 0.000491747, No Iterations 2
smoothSolver:  Solving for Uy, Initial residual = 0.0303422, Final residual = 0.000545711, No Iterations 2
smoothSolver:  Solving for Uz, Initial residual = 0.0376846, Final residual = 0.000610488, No Iterations 2
GAMG:  Solving for p, Initial residual = 0.0485926, Final residual = 0.00275898, No Iterations 2
GAMG:  Solving for p, Initial residual = 0.00487085, Final residual = 0.000470245, No Iterations 3
time step continuity errors : sum local = 0.00388324, global = -4.85346e-05, cumulative = -0.0067528
ExecutionTime = 62.53 s  ClockTime = 63 s

Time = 0.78

smoothSolver:  Solving for Ux, Initial residual = 0.0266107, Final residual = 0.00049395, No Iterations 2
smoothSolver:  Solving for Uy, Initial residual = 0.0302483, Final residual = 0.000547903, No Iterations 2
smoothSolver:  Solving for Uz, Initial residual = 0.0378679, Final residual = 0.000610023, No Iterations 2
GAMG:  Solving for p, Initial residual = 0.0477486, Final residual = 0.00277479, No Iterations 2
GAMG:  Solving for p, Initial residual = 0.00487666, Final residual = 0.000480157, No Iterations 3
time step continuity errors : sum local = 0.00402887, global = -5.75266e-05, cumulative = -0.00681033
ExecutionTime = 63.32 s  ClockTime = 64 s

Time = 0.79

smoothSolver:  Solving for Ux, Initial residual = 0.0264983, Final residual = 0.000493491, No Iterations 2
smoothSolver:  Solving for Uy, Initial residual = 0.0300959, Final residual = 0.000546173, No Iterations 2
smoothSolver:  Solving for Uz, Initial residual = 0.0379086, Final residual = 0.000613315, No Iterations 2
GAMG:  Solving for p, Initial residual = 0.0472429, Final residual = 0.00275291, No Iterations 2
GAMG:  Solving for p, Initial residual = 0.0048391, Final residual = 0.000465756, No Iterations 3
time step continuity errors : sum local = 0.003967, global = -6.4435e-05, cumulative = -0.00687476
ExecutionTime = 64.08 s  ClockTime = 64 s

Time = 0.8

smoothSolver:  Solving for Ux, Initial residual = 0.02637, Final residual = 0.000491587, No Iterations 2
smoothSolver:  Solving for Uy, Initial residual = 0.0299219, Final residual = 0.000542123, No Iterations 2
smoothSolver:  Solving for Uz, Initial residual = 0.0378832, Final residual = 0.000620483, No Iterations 2
GAMG:  Solving for p, Initial residual = 0.0480697, Final residual = 0.00282147, No Iterations 2
GAMG:  Solving for p, Initial residual = 0.00494879, Final residual = 0.000484453, No Iterations 3
time step continuity errors : sum local = 0.00409803, global = -6.10061e-05, cumulative = -0.00693577
ExecutionTime = 64.87 s  ClockTime = 65 s

Time = 0.81

smoothSolver:  Solving for Ux, Initial residual = 0.0263209, Final residual = 0.000489932, No Iterations 2
smoothSolver:  Solving for Uy, Initial residual = 0.0296935, Final residual = 0.000537937, No Iterations 2
smoothSolver:  Solving for Uz, Initial residual = 0.0380463, Final residual = 0.000625693, No Iterations 2
GAMG:  Solving for p, Initial residual = 0.047916, Final residual = 0.00283548, No Iterations 2
GAMG:  Solving for p, Initial residual = 0.00496232, Final residual = 0.000479388, No Iterations 3
time step continuity errors : sum local = 0.00411789, global = -5.17117e-05, cumulative = -0.00698748
ExecutionTime = 65.65 s  ClockTime = 66 s

Time = 0.82

smoothSolver:  Solving for Ux, Initial residual = 0.0262931, Final residual = 0.000490192, No Iterations 2
smoothSolver:  Solving for Uy, Initial residual = 0.029538, Final residual = 0.000533306, No Iterations 2
smoothSolver:  Solving for Uz, Initial residual = 0.0383675, Final residual = 0.000632443, No Iterations 2
GAMG:  Solving for p, Initial residual = 0.0481448, Final residual = 0.00287166, No Iterations 2
GAMG:  Solving for p, Initial residual = 0.00501984, Final residual = 0.000488253, No Iterations 3
time step continuity errors : sum local = 0.0042338, global = -5.67001e-05, cumulative = -0.00704418
ExecutionTime = 66.41 s  ClockTime = 67 s

Time = 0.83

smoothSolver:  Solving for Ux, Initial residual = 0.0263056, Final residual = 0.000488384, No Iterations 2
smoothSolver:  Solving for Uy, Initial residual = 0.0294878, Final residual = 0.000528807, No Iterations 2
smoothSolver:  Solving for Uz, Initial residual = 0.0387454, Final residual = 0.000635198, No Iterations 2
GAMG:  Solving for p, Initial residual = 0.0486667, Final residual = 0.00291676, No Iterations 2
GAMG:  Solving for p, Initial residual = 0.00508854, Final residual = 0.000495728, No Iterations 3
time step continuity errors : sum local = 0.00433292, global = -5.65618e-05, cumulative = -0.00710074
ExecutionTime = 67.19 s  ClockTime = 67 s

Time = 0.84

smoothSolver:  Solving for Ux, Initial residual = 0.0263757, Final residual = 0.0004883, No Iterations 2
smoothSolver:  Solving for Uy, Initial residual = 0.029518, Final residual = 0.000522572, No Iterations 2
smoothSolver:  Solving for Uz, Initial residual = 0.0390842, Final residual = 0.000638607, No Iterations 2
GAMG:  Solving for p, Initial residual = 0.0490455, Final residual = 0.00296978, No Iterations 2
GAMG:  Solving for p, Initial residual = 0.00514032, Final residual = 0.000507075, No Iterations 3
time step continuity errors : sum local = 0.00447341, global = -7.88681e-05, cumulative = -0.00717961
ExecutionTime = 67.97 s  ClockTime = 68 s

Time = 0.85

smoothSolver:  Solving for Ux, Initial residual = 0.0264663, Final residual = 0.000489936, No Iterations 2
smoothSolver:  Solving for Uy, Initial residual = 0.029522, Final residual = 0.000516074, No Iterations 2
smoothSolver:  Solving for Uz, Initial residual = 0.0393192, Final residual = 0.000644523, No Iterations 2
GAMG:  Solving for p, Initial residual = 0.0499242, Final residual = 0.00302906, No Iterations 2
GAMG:  Solving for p, Initial residual = 0.00522307, Final residual = 0.000508779, No Iterations 3
time step continuity errors : sum local = 0.00452091, global = -9.36727e-05, cumulative = -0.00727328
ExecutionTime = 68.73 s  ClockTime = 69 s

Time = 0.86

smoothSolver:  Solving for Ux, Initial residual = 0.0265719, Final residual = 0.000492439, No Iterations 2
smoothSolver:  Solving for Uy, Initial residual = 0.0295862, Final residual = 0.000516057, No Iterations 2
smoothSolver:  Solving for Uz, Initial residual = 0.0394996, Final residual = 0.000651442, No Iterations 2
GAMG:  Solving for p, Initial residual = 0.0509069, Final residual = 0.00307973, No Iterations 2
GAMG:  Solving for p, Initial residual = 0.00531038, Final residual = 0.000519298, No Iterations 3
time step continuity errors : sum local = 0.00465981, global = -9.52361e-05, cumulative = -0.00736852
ExecutionTime = 69.51 s  ClockTime = 70 s

Time = 0.87

smoothSolver:  Solving for Ux, Initial residual = 0.026698, Final residual = 0.000493508, No Iterations 2
smoothSolver:  Solving for Uy, Initial residual = 0.0297899, Final residual = 0.000517817, No Iterations 2
smoothSolver:  Solving for Uz, Initial residual = 0.0396463, Final residual = 0.000660486, No Iterations 2
GAMG:  Solving for p, Initial residual = 0.0508877, Final residual = 0.00309665, No Iterations 2
GAMG:  Solving for p, Initial residual = 0.00530653, Final residual = 0.000524931, No Iterations 3
time step continuity errors : sum local = 0.00483916, global = -8.8347e-05, cumulative = -0.00745686
ExecutionTime = 70.28 s  ClockTime = 70 s

Time = 0.88

smoothSolver:  Solving for Ux, Initial residual = 0.0268316, Final residual = 0.000494955, No Iterations 2
smoothSolver:  Solving for Uy, Initial residual = 0.0300751, Final residual = 0.00052679, No Iterations 2
smoothSolver:  Solving for Uz, Initial residual = 0.0397854, Final residual = 0.000670219, No Iterations 2
GAMG:  Solving for p, Initial residual = 0.0519696, Final residual = 0.00315262, No Iterations 2
GAMG:  Solving for p, Initial residual = 0.00535189, Final residual = 0.000533668, No Iterations 3
time step continuity errors : sum local = 0.00496267, global = -7.55813e-05, cumulative = -0.00753245
ExecutionTime = 71.04 s  ClockTime = 71 s

Time = 0.89

smoothSolver:  Solving for Ux, Initial residual = 0.0269897, Final residual = 0.000499775, No Iterations 2
smoothSolver:  Solving for Uy, Initial residual = 0.0303903, Final residual = 0.000538468, No Iterations 2
smoothSolver:  Solving for Uz, Initial residual = 0.0399667, Final residual = 0.000679408, No Iterations 2
GAMG:  Solving for p, Initial residual = 0.0520805, Final residual = 0.00315142, No Iterations 2
GAMG:  Solving for p, Initial residual = 0.00536229, Final residual = 0.000534608, No Iterations 3
time step continuity errors : sum local = 0.0051019, global = -6.00675e-05, cumulative = -0.00759251
ExecutionTime = 71.84 s  ClockTime = 72 s

Time = 0.9

smoothSolver:  Solving for Ux, Initial residual = 0.027103, Final residual = 0.000506017, No Iterations 2
smoothSolver:  Solving for Uy, Initial residual = 0.030764, Final residual = 0.000549193, No Iterations 2
smoothSolver:  Solving for Uz, Initial residual = 0.0402409, Final residual = 0.000688463, No Iterations 2
GAMG:  Solving for p, Initial residual = 0.0529137, Final residual = 0.00321822, No Iterations 2
GAMG:  Solving for p, Initial residual = 0.00549872, Final residual = 0.000535122, No Iterations 3
time step continuity errors : sum local = 0.00511254, global = -5.0587e-05, cumulative = -0.0076431
ExecutionTime = 72.61 s  ClockTime = 73 s

Time = 0.91

smoothSolver:  Solving for Ux, Initial residual = 0.0272266, Final residual = 0.000510298, No Iterations 2
smoothSolver:  Solving for Uy, Initial residual = 0.0311463, Final residual = 0.000559169, No Iterations 2
smoothSolver:  Solving for Uz, Initial residual = 0.0405167, Final residual = 0.000698165, No Iterations 2
GAMG:  Solving for p, Initial residual = 0.0534043, Final residual = 0.00323328, No Iterations 2
GAMG:  Solving for p, Initial residual = 0.00559934, Final residual = 0.000533255, No Iterations 3
time step continuity errors : sum local = 0.00516575, global = -4.89872e-05, cumulative = -0.00769209
ExecutionTime = 73.38 s  ClockTime = 74 s

Time = 0.92

smoothSolver:  Solving for Ux, Initial residual = 0.0274897, Final residual = 0.000516767, No Iterations 2
smoothSolver:  Solving for Uy, Initial residual = 0.0315972, Final residual = 0.000569115, No Iterations 2
smoothSolver:  Solving for Uz, Initial residual = 0.0410336, Final residual = 0.000711049, No Iterations 2
GAMG:  Solving for p, Initial residual = 0.0535341, Final residual = 0.0032459, No Iterations 2
GAMG:  Solving for p, Initial residual = 0.00561435, Final residual = 0.000536586, No Iterations 3
time step continuity errors : sum local = 0.00534773, global = -5.56813e-05, cumulative = -0.00774777
ExecutionTime = 74.16 s  ClockTime = 74 s

Time = 0.93

smoothSolver:  Solving for Ux, Initial residual = 0.0278101, Final residual = 0.000523286, No Iterations 2
smoothSolver:  Solving for Uy, Initial residual = 0.0320809, Final residual = 0.000577928, No Iterations 2
smoothSolver:  Solving for Uz, Initial residual = 0.0417857, Final residual = 0.000722272, No Iterations 2
GAMG:  Solving for p, Initial residual = 0.0548805, Final residual = 0.00332897, No Iterations 2
GAMG:  Solving for p, Initial residual = 0.00568301, Final residual = 0.000552305, No Iterations 3
time step continuity errors : sum local = 0.00553371, global = -6.28986e-05, cumulative = -0.00781067
ExecutionTime = 74.95 s  ClockTime = 75 s

Time = 0.94

smoothSolver:  Solving for Ux, Initial residual = 0.0280384, Final residual = 0.000528988, No Iterations 2
smoothSolver:  Solving for Uy, Initial residual = 0.0325349, Final residual = 0.000589341, No Iterations 2
smoothSolver:  Solving for Uz, Initial residual = 0.0422938, Final residual = 0.000730938, No Iterations 2
GAMG:  Solving for p, Initial residual = 0.0553911, Final residual = 0.00334134, No Iterations 2
GAMG:  Solving for p, Initial residual = 0.00564462, Final residual = 0.000557571, No Iterations 3
time step continuity errors : sum local = 0.00566922, global = -6.64418e-05, cumulative = -0.00787711
ExecutionTime = 75.7 s  ClockTime = 76 s

Time = 0.95

smoothSolver:  Solving for Ux, Initial residual = 0.0283803, Final residual = 0.000535456, No Iterations 2
smoothSolver:  Solving for Uy, Initial residual = 0.0329487, Final residual = 0.000596995, No Iterations 2
smoothSolver:  Solving for Uz, Initial residual = 0.0426166, Final residual = 0.000732884, No Iterations 2
GAMG:  Solving for p, Initial residual = 0.0572253, Final residual = 0.00344286, No Iterations 2
GAMG:  Solving for p, Initial residual = 0.00574987, Final residual = 0.000574421, No Iterations 3
time step continuity errors : sum local = 0.00577404, global = -6.0457e-05, cumulative = -0.00793757
ExecutionTime = 76.48 s  ClockTime = 77 s

Time = 0.96

smoothSolver:  Solving for Ux, Initial residual = 0.0286891, Final residual = 0.000538712, No Iterations 2
smoothSolver:  Solving for Uy, Initial residual = 0.0333292, Final residual = 0.000605653, No Iterations 2
smoothSolver:  Solving for Uz, Initial residual = 0.0429397, Final residual = 0.000735205, No Iterations 2
GAMG:  Solving for p, Initial residual = 0.0584831, Final residual = 0.00348354, No Iterations 2
GAMG:  Solving for p, Initial residual = 0.00579153, Final residual = 0.000338183, No Iterations 4
time step continuity errors : sum local = 0.00340264, global = -4.07771e-05, cumulative = -0.00797834
ExecutionTime = 77.29 s  ClockTime = 78 s

Time = 0.97

smoothSolver:  Solving for Ux, Initial residual = 0.0289812, Final residual = 0.000541672, No Iterations 2
smoothSolver:  Solving for Uy, Initial residual = 0.0336952, Final residual = 0.000607147, No Iterations 2
smoothSolver:  Solving for Uz, Initial residual = 0.0432337, Final residual = 0.00074034, No Iterations 2
GAMG:  Solving for p, Initial residual = 0.0578263, Final residual = 0.00333624, No Iterations 2
GAMG:  Solving for p, Initial residual = 0.0056089, Final residual = 0.000331245, No Iterations 4
time step continuity errors : sum local = 0.00344054, global = -4.14794e-05, cumulative = -0.00801982
ExecutionTime = 78.08 s  ClockTime = 78 s

Time = 0.98

smoothSolver:  Solving for Ux, Initial residual = 0.029214, Final residual = 0.000543138, No Iterations 2
smoothSolver:  Solving for Uy, Initial residual = 0.0339171, Final residual = 0.000611703, No Iterations 2
smoothSolver:  Solving for Uz, Initial residual = 0.0435787, Final residual = 0.000747645, No Iterations 2
GAMG:  Solving for p, Initial residual = 0.0591161, Final residual = 0.00337749, No Iterations 2
GAMG:  Solving for p, Initial residual = 0.0057252, Final residual = 0.000571354, No Iterations 3
time step continuity errors : sum local = 0.00591196, global = -7.58631e-05, cumulative = -0.00809569
ExecutionTime = 78.87 s  ClockTime = 79 s

Time = 0.99

smoothSolver:  Solving for Ux, Initial residual = 0.0294119, Final residual = 0.000540498, No Iterations 2
smoothSolver:  Solving for Uy, Initial residual = 0.033965, Final residual = 0.000613128, No Iterations 2
smoothSolver:  Solving for Uz, Initial residual = 0.0440247, Final residual = 0.000756564, No Iterations 2
GAMG:  Solving for p, Initial residual = 0.0599075, Final residual = 0.003483, No Iterations 2
GAMG:  Solving for p, Initial residual = 0.00584309, Final residual = 0.000583568, No Iterations 3
time step continuity errors : sum local = 0.00605298, global = -8.4423e-05, cumulative = -0.00818011
ExecutionTime = 79.65 s  ClockTime = 80 s

Time = 1

smoothSolver:  Solving for Ux, Initial residual = 0.0295154, Final residual = 0.000544954, No Iterations 2
smoothSolver:  Solving for Uy, Initial residual = 0.0339935, Final residual = 0.000612172, No Iterations 2
smoothSolver:  Solving for Uz, Initial residual = 0.0442528, Final residual = 0.000757458, No Iterations 2
GAMG:  Solving for p, Initial residual = 0.059851, Final residual = 0.00353146, No Iterations 2
GAMG:  Solving for p, Initial residual = 0.00585776, Final residual = 0.000379706, No Iterations 4
time step continuity errors : sum local = 0.0039764, global = -6.11155e-05, cumulative = -0.00824122
ExecutionTime = 81.07 s  ClockTime = 82 s

Time = 1.01

smoothSolver:  Solving for Ux, Initial residual = 0.0296303, Final residual = 0.000549654, No Iterations 2
smoothSolver:  Solving for Uy, Initial residual = 0.0338845, Final residual = 0.00061242, No Iterations 2
smoothSolver:  Solving for Uz, Initial residual = 0.0443811, Final residual = 0.000745693, No Iterations 2
GAMG:  Solving for p, Initial residual = 0.0599243, Final residual = 0.00352189, No Iterations 2
GAMG:  Solving for p, Initial residual = 0.00584154, Final residual = 0.00056599, No Iterations 3
time step continuity errors : sum local = 0.00595847, global = -0.000149365, cumulative = -0.00839059
ExecutionTime = 81.85 s  ClockTime = 82 s

Time = 1.02

smoothSolver:  Solving for Ux, Initial residual = 0.0297534, Final residual = 0.000553392, No Iterations 2
smoothSolver:  Solving for Uy, Initial residual = 0.0338101, Final residual = 0.00060769, No Iterations 2
smoothSolver:  Solving for Uz, Initial residual = 0.0443392, Final residual = 0.000733266, No Iterations 2
GAMG:  Solving for p, Initial residual = 0.0597985, Final residual = 0.00364813, No Iterations 2
GAMG:  Solving for p, Initial residual = 0.00599066, Final residual = 0.000385223, No Iterations 4
time step continuity errors : sum local = 0.00408227, global = -0.000111116, cumulative = -0.0085017
ExecutionTime = 82.68 s  ClockTime = 83 s

Time = 1.03

smoothSolver:  Solving for Ux, Initial residual = 0.0298384, Final residual = 0.000556162, No Iterations 2
smoothSolver:  Solving for Uy, Initial residual = 0.0338195, Final residual = 0.000599128, No Iterations 2
smoothSolver:  Solving for Uz, Initial residual = 0.0443481, Final residual = 0.000725962, No Iterations 2
GAMG:  Solving for p, Initial residual = 0.0600049, Final residual = 0.00360322, No Iterations 2
GAMG:  Solving for p, Initial residual = 0.00591029, Final residual = 0.000577524, No Iterations 3
time step continuity errors : sum local = 0.00613228, global = -0.000205301, cumulative = -0.00870701
ExecutionTime = 83.44 s  ClockTime = 84 s

Time = 1.04

smoothSolver:  Solving for Ux, Initial residual = 0.0298749, Final residual = 0.000558186, No Iterations 2
smoothSolver:  Solving for Uy, Initial residual = 0.0337593, Final residual = 0.000589833, No Iterations 2
smoothSolver:  Solving for Uz, Initial residual = 0.0441653, Final residual = 0.000720143, No Iterations 2
GAMG:  Solving for p, Initial residual = 0.0602458, Final residual = 0.00370758, No Iterations 2
GAMG:  Solving for p, Initial residual = 0.00601542, Final residual = 0.000383154, No Iterations 4
time step continuity errors : sum local = 0.00408538, global = -0.000119301, cumulative = -0.00882631
ExecutionTime = 84.26 s  ClockTime = 85 s

Time = 1.05

smoothSolver:  Solving for Ux, Initial residual = 0.0299564, Final residual = 0.000557558, No Iterations 2
smoothSolver:  Solving for Uy, Initial residual = 0.0336346, Final residual = 0.000582439, No Iterations 2
smoothSolver:  Solving for Uz, Initial residual = 0.0440661, Final residual = 0.000720528, No Iterations 2
GAMG:  Solving for p, Initial residual = 0.0607415, Final residual = 0.00366147, No Iterations 2
GAMG:  Solving for p, Initial residual = 0.00597717, Final residual = 0.000585669, No Iterations 3
time step continuity errors : sum local = 0.00627877, global = -0.000175957, cumulative = -0.00900226
ExecutionTime = 85.04 s  ClockTime = 86 s

Time = 1.06

smoothSolver:  Solving for Ux, Initial residual = 0.0300427, Final residual = 0.000555819, No Iterations 2
smoothSolver:  Solving for Uy, Initial residual = 0.0335509, Final residual = 0.000574628, No Iterations 2
smoothSolver:  Solving for Uz, Initial residual = 0.0439936, Final residual = 0.000721918, No Iterations 2
GAMG:  Solving for p, Initial residual = 0.0615439, Final residual = 0.00379943, No Iterations 2
GAMG:  Solving for p, Initial residual = 0.00616993, Final residual = 0.000386283, No Iterations 4
time step continuity errors : sum local = 0.00413124, global = -8.03831e-05, cumulative = -0.00908265
ExecutionTime = 85.85 s  ClockTime = 86 s

Time = 1.07

smoothSolver:  Solving for Ux, Initial residual = 0.0301361, Final residual = 0.00055686, No Iterations 2
smoothSolver:  Solving for Uy, Initial residual = 0.0334274, Final residual = 0.000571404, No Iterations 2
smoothSolver:  Solving for Uz, Initial residual = 0.0439914, Final residual = 0.00072474, No Iterations 2
GAMG:  Solving for p, Initial residual = 0.061789, Final residual = 0.00374353, No Iterations 2
GAMG:  Solving for p, Initial residual = 0.00614046, Final residual = 0.000608267, No Iterations 3
time step continuity errors : sum local = 0.00654756, global = -0.000107206, cumulative = -0.00918985
ExecutionTime = 86.63 s  ClockTime = 87 s

Time = 1.08

smoothSolver:  Solving for Ux, Initial residual = 0.0302795, Final residual = 0.000559572, No Iterations 2
smoothSolver:  Solving for Uy, Initial residual = 0.0332901, Final residual = 0.000570793, No Iterations 2
smoothSolver:  Solving for Uz, Initial residual = 0.0441138, Final residual = 0.000725514, No Iterations 2
GAMG:  Solving for p, Initial residual = 0.0616015, Final residual = 0.00381466, No Iterations 2
GAMG:  Solving for p, Initial residual = 0.00621991, Final residual = 0.000371668, No Iterations 4
time step continuity errors : sum local = 0.00408824, global = -5.58079e-05, cumulative = -0.00924566
ExecutionTime = 87.53 s  ClockTime = 88 s

Time = 1.09

smoothSolver:  Solving for Ux, Initial residual = 0.0305121, Final residual = 0.000564186, No Iterations 2
smoothSolver:  Solving for Uy, Initial residual = 0.0333034, Final residual = 0.000572022, No Iterations 2
smoothSolver:  Solving for Uz, Initial residual = 0.0443014, Final residual = 0.000728788, No Iterations 2
GAMG:  Solving for p, Initial residual = 0.0624834, Final residual = 0.00384891, No Iterations 2
GAMG:  Solving for p, Initial residual = 0.0062791, Final residual = 0.000621002, No Iterations 3
time step continuity errors : sum local = 0.00685714, global = -6.80111e-05, cumulative = -0.00931367
ExecutionTime = 88.28 s  ClockTime = 89 s

Time = 1.1

smoothSolver:  Solving for Ux, Initial residual = 0.0308143, Final residual = 0.000565332, No Iterations 2
smoothSolver:  Solving for Uy, Initial residual = 0.0333424, Final residual = 0.000572418, No Iterations 2
smoothSolver:  Solving for Uz, Initial residual = 0.0444258, Final residual = 0.000735913, No Iterations 2
GAMG:  Solving for p, Initial residual = 0.0629252, Final residual = 0.00398071, No Iterations 2
GAMG:  Solving for p, Initial residual = 0.00642559, Final residual = 0.00040348, No Iterations 4
time step continuity errors : sum local = 0.00451557, global = -4.26533e-05, cumulative = -0.00935633
ExecutionTime = 89.1 s  ClockTime = 90 s

Time = 1.11

smoothSolver:  Solving for Ux, Initial residual = 0.0311524, Final residual = 0.00056666, No Iterations 2
smoothSolver:  Solving for Uy, Initial residual = 0.0333918, Final residual = 0.000579129, No Iterations 2
smoothSolver:  Solving for Uz, Initial residual = 0.0446828, Final residual = 0.000747412, No Iterations 2
GAMG:  Solving for p, Initial residual = 0.0638726, Final residual = 0.00400527, No Iterations 2
GAMG:  Solving for p, Initial residual = 0.00645167, Final residual = 0.000404608, No Iterations 4
time step continuity errors : sum local = 0.00453627, global = -3.94302e-05, cumulative = -0.00939576
ExecutionTime = 89.92 s  ClockTime = 90 s

Time = 1.12

smoothSolver:  Solving for Ux, Initial residual = 0.0314679, Final residual = 0.000569922, No Iterations 2
smoothSolver:  Solving for Uy, Initial residual = 0.0334453, Final residual = 0.000583953, No Iterations 2
smoothSolver:  Solving for Uz, Initial residual = 0.0450325, Final residual = 0.000759855, No Iterations 2
GAMG:  Solving for p, Initial residual = 0.0646699, Final residual = 0.0040327, No Iterations 2
GAMG:  Solving for p, Initial residual = 0.00649181, Final residual = 0.000413751, No Iterations 4
time step continuity errors : sum local = 0.00467238, global = -3.78567e-05, cumulative = -0.00943361
ExecutionTime = 90.72 s  ClockTime = 91 s

Time = 1.13

smoothSolver:  Solving for Ux, Initial residual = 0.0318216, Final residual = 0.000576654, No Iterations 2
smoothSolver:  Solving for Uy, Initial residual = 0.0335697, Final residual = 0.000589604, No Iterations 2
smoothSolver:  Solving for Uz, Initial residual = 0.0452804, Final residual = 0.00076393, No Iterations 2
GAMG:  Solving for p, Initial residual = 0.0646454, Final residual = 0.00403311, No Iterations 2
GAMG:  Solving for p, Initial residual = 0.00651494, Final residual = 0.000412666, No Iterations 4
time step continuity errors : sum local = 0.0047324, global = -3.79452e-05, cumulative = -0.00947156
ExecutionTime = 91.54 s  ClockTime = 92 s

Time = 1.14

smoothSolver:  Solving for Ux, Initial residual = 0.0321324, Final residual = 0.000586731, No Iterations 2
smoothSolver:  Solving for Uy, Initial residual = 0.0337429, Final residual = 0.000595717, No Iterations 2
smoothSolver:  Solving for Uz, Initial residual = 0.045523, Final residual = 0.000766804, No Iterations 2
GAMG:  Solving for p, Initial residual = 0.0644254, Final residual = 0.00402478, No Iterations 2
GAMG:  Solving for p, Initial residual = 0.00651264, Final residual = 0.000410543, No Iterations 4
time step continuity errors : sum local = 0.00479883, global = -3.96422e-05, cumulative = -0.0095112
ExecutionTime = 92.36 s  ClockTime = 93 s

Time = 1.15

smoothSolver:  Solving for Ux, Initial residual = 0.0325157, Final residual = 0.000598533, No Iterations 2
smoothSolver:  Solving for Uy, Initial residual = 0.0339872, Final residual = 0.000600432, No Iterations 2
smoothSolver:  Solving for Uz, Initial residual = 0.0459169, Final residual = 0.000772036, No Iterations 2
GAMG:  Solving for p, Initial residual = 0.0645936, Final residual = 0.00406739, No Iterations 2
GAMG:  Solving for p, Initial residual = 0.00657268, Final residual = 0.000413, No Iterations 4
time step continuity errors : sum local = 0.00490122, global = -3.81867e-05, cumulative = -0.00954939
ExecutionTime = 93.15 s  ClockTime = 94 s

Time = 1.16

smoothSolver:  Solving for Ux, Initial residual = 0.0328546, Final residual = 0.00060744, No Iterations 2
smoothSolver:  Solving for Uy, Initial residual = 0.0342893, Final residual = 0.000606463, No Iterations 2
smoothSolver:  Solving for Uz, Initial residual = 0.0464478, Final residual = 0.000780678, No Iterations 2
GAMG:  Solving for p, Initial residual = 0.0656203, Final residual = 0.00417004, No Iterations 2
GAMG:  Solving for p, Initial residual = 0.00674756, Final residual = 0.000418931, No Iterations 4
time step continuity errors : sum local = 0.00501519, global = -3.91898e-05, cumulative = -0.00958858
ExecutionTime = 93.97 s  ClockTime = 94 s

Time = 1.17

smoothSolver:  Solving for Ux, Initial residual = 0.0330539, Final residual = 0.000613274, No Iterations 2
smoothSolver:  Solving for Uy, Initial residual = 0.0345928, Final residual = 0.000612992, No Iterations 2
smoothSolver:  Solving for Uz, Initial residual = 0.0471154, Final residual = 0.000790099, No Iterations 2
GAMG:  Solving for p, Initial residual = 0.0664921, Final residual = 0.00421357, No Iterations 2
GAMG:  Solving for p, Initial residual = 0.00683474, Final residual = 0.000435764, No Iterations 4
time step continuity errors : sum local = 0.00529481, global = -3.9209e-05, cumulative = -0.00962779
[...]

smoothSolver:  Solving for Ux, Initial residual = 0.0221189, Final residual = 0.000460544, No Iterations 2
smoothSolver:  Solving for Uy, Initial residual = 0.0421073, Final residual = 0.000859268, No Iterations 2
smoothSolver:  Solving for Uz, Initial residual = 0.0485271, Final residual = 0.000990116, No Iterations 2
GAMG:  Solving for p, Initial residual = 0.110185, Final residual = 0.00606306, No Iterations 2
GAMG:  Solving for p, Initial residual = 0.00935069, Final residual = 0.000758569, No Iterations 4
time step continuity errors : sum local = 168.876, global = 1.16549, cumulative = -111.567
ExecutionTime = 1355.16 s  ClockTime = 1364 s

Time = 14.72

smoothSolver:  Solving for Ux, Initial residual = 0.0219734, Final residual = 0.000459281, No Iterations 2
smoothSolver:  Solving for Uy, Initial residual = 0.041918, Final residual = 0.000858472, No Iterations 2
smoothSolver:  Solving for Uz, Initial residual = 0.0482726, Final residual = 0.000991113, No Iterations 2
GAMG:  Solving for p, Initial residual = 0.110618, Final residual = 0.00613344, No Iterations 2
GAMG:  Solving for p, Initial residual = 0.00939556, Final residual = 0.000741018, No Iterations 4
time step continuity errors : sum local = 163.998, global = 2.28905, cumulative = -109.278
ExecutionTime = 1356.05 s  ClockTime = 1365 s

Time = 14.73

smoothSolver:  Solving for Ux, Initial residual = 0.0218235, Final residual = 0.000456831, No Iterations 2
smoothSolver:  Solving for Uy, Initial residual = 0.041806, Final residual = 0.00086264, No Iterations 2
smoothSolver:  Solving for Uz, Initial residual = 0.0480862, Final residual = 0.000987946, No Iterations 2
GAMG:  Solving for p, Initial residual = 0.110058, Final residual = 0.00612311, No Iterations 2
GAMG:  Solving for p, Initial residual = 0.0093937, Final residual = 0.000733592, No Iterations 4
time step continuity errors : sum local = 162.301, global = 1.80045, cumulative = -107.477
ExecutionTime = 1356.98 s  ClockTime = 1366 s

Time = 14.74

smoothSolver:  Solving for Ux, Initial residual = 0.0217, Final residual = 0.000453758, No Iterations 2
smoothSolver:  Solving for Uy, Initial residual = 0.0417469, Final residual = 0.000860664, No Iterations 2
smoothSolver:  Solving for Uz, Initial residual = 0.0479159, Final residual = 0.000986538, No Iterations 2
GAMG:  Solving for p, Initial residual = 0.10964, Final residual = 0.0059803, No Iterations 2
GAMG:  Solving for p, Initial residual = 0.00930623, Final residual = 0.00070612, No Iterations 4
time step continuity errors : sum local = 156.91, global = -0.325822, cumulative = -107.803
ExecutionTime = 1358.01 s  ClockTime = 1367 s

Time = 14.75

smoothSolver:  Solving for Ux, Initial residual = 0.0216347, Final residual = 0.000450217, No Iterations 2
smoothSolver:  Solving for Uy, Initial residual = 0.0417509, Final residual = 0.000851523, No Iterations 2
smoothSolver:  Solving for Uz, Initial residual = 0.0478087, Final residual = 0.000979856, No Iterations 2
GAMG:  Solving for p, Initial residual = 0.110029, Final residual = 0.00590952, No Iterations 2
GAMG:  Solving for p, Initial residual = 0.0092529, Final residual = 0.000685299, No Iterations 4
time step continuity errors : sum local = 150.872, global = -0.683301, cumulative = -108.486
ExecutionTime = 1359.11 s  ClockTime = 1368 s

Time = 14.76

smoothSolver:  Solving for Ux, Initial residual = 0.0214774, Final residual = 0.000444233, No Iterations 2
smoothSolver:  Solving for Uy, Initial residual = 0.041647, Final residual = 0.000839846, No Iterations 2
smoothSolver:  Solving for Uz, Initial residual = 0.0476598, Final residual = 0.000967698, No Iterations 2
GAMG:  Solving for p, Initial residual = 0.109284, Final residual = 0.00587427, No Iterations 2
GAMG:  Solving for p, Initial residual = 0.00921508, Final residual = 0.000687445, No Iterations 4
time step continuity errors : sum local = 151.834, global = -0.672126, cumulative = -109.159
ExecutionTime = 1360.26 s  ClockTime = 1370 s

Time = 14.77

smoothSolver:  Solving for Ux, Initial residual = 0.0213533, Final residual = 0.000438312, No Iterations 2
smoothSolver:  Solving for Uy, Initial residual = 0.0415042, Final residual = 0.000832727, No Iterations 2
smoothSolver:  Solving for Uz, Initial residual = 0.0475517, Final residual = 0.000966681, No Iterations 2
GAMG:  Solving for p, Initial residual = 0.108286, Final residual = 0.00587886, No Iterations 2
GAMG:  Solving for p, Initial residual = 0.00917294, Final residual = 0.00068587, No Iterations 4
time step continuity errors : sum local = 152.309, global = -0.653283, cumulative = -109.812
ExecutionTime = 1361.16 s  ClockTime = 1370 s

Time = 14.78

smoothSolver:  Solving for Ux, Initial residual = 0.0212528, Final residual = 0.00043702, No Iterations 2
smoothSolver:  Solving for Uy, Initial residual = 0.0412496, Final residual = 0.000827347, No Iterations 2
smoothSolver:  Solving for Uz, Initial residual = 0.0474713, Final residual = 0.000966487, No Iterations 2
GAMG:  Solving for p, Initial residual = 0.10797, Final residual = 0.00594839, No Iterations 2
GAMG:  Solving for p, Initial residual = 0.00919575, Final residual = 0.000719195, No Iterations 4
time step continuity errors : sum local = 158.898, global = -0.770793, cumulative = -110.583
ExecutionTime = 1362.05 s  ClockTime = 1371 s

Time = 14.79

smoothSolver:  Solving for Ux, Initial residual = 0.0211769, Final residual = 0.000435039, No Iterations 2
smoothSolver:  Solving for Uy, Initial residual = 0.0409049, Final residual = 0.000826833, No Iterations 2
smoothSolver:  Solving for Uz, Initial residual = 0.0474081, Final residual = 0.000964716, No Iterations 2
GAMG:  Solving for p, Initial residual = 0.107596, Final residual = 0.00594898, No Iterations 2
GAMG:  Solving for p, Initial residual = 0.00917908, Final residual = 0.000715589, No Iterations 4
time step continuity errors : sum local = 158.159, global = -1.51326, cumulative = -112.096
ExecutionTime = 1362.95 s  ClockTime = 1372 s

Time = 14.8

smoothSolver:  Solving for Ux, Initial residual = 0.02115, Final residual = 0.000436332, No Iterations 2
smoothSolver:  Solving for Uy, Initial residual = 0.0405222, Final residual = 0.000830699, No Iterations 2
smoothSolver:  Solving for Uz, Initial residual = 0.0473226, Final residual = 0.000964019, No Iterations 2
GAMG:  Solving for p, Initial residual = 0.107704, Final residual = 0.00595686, No Iterations 2
GAMG:  Solving for p, Initial residual = 0.00920965, Final residual = 0.000716303, No Iterations 4
time step continuity errors : sum local = 157.441, global = -0.786768, cumulative = -112.883
ExecutionTime = 1363.79 s  ClockTime = 1373 s

Time = 14.81

smoothSolver:  Solving for Ux, Initial residual = 0.0211283, Final residual = 0.000436123, No Iterations 2
smoothSolver:  Solving for Uy, Initial residual = 0.0401379, Final residual = 0.0008267, No Iterations 2
smoothSolver:  Solving for Uz, Initial residual = 0.0471967, Final residual = 0.000966163, No Iterations 2
GAMG:  Solving for p, Initial residual = 0.108227, Final residual = 0.00594125, No Iterations 2
GAMG:  Solving for p, Initial residual = 0.00915291, Final residual = 0.000702659, No Iterations 4
time step continuity errors : sum local = 153.685, global = 0.729046, cumulative = -112.154
ExecutionTime = 1364.68 s  ClockTime = 1374 s

Time = 14.82

smoothSolver:  Solving for Ux, Initial residual = 0.0210947, Final residual = 0.000434996, No Iterations 2
smoothSolver:  Solving for Uy, Initial residual = 0.0398379, Final residual = 0.000825237, No Iterations 2
smoothSolver:  Solving for Uz, Initial residual = 0.0470501, Final residual = 0.000959033, No Iterations 2
GAMG:  Solving for p, Initial residual = 0.108236, Final residual = 0.00593173, No Iterations 2
GAMG:  Solving for p, Initial residual = 0.0091092, Final residual = 0.000682, No Iterations 4
time step continuity errors : sum local = 148.893, global = 0.868504, cumulative = -111.285
ExecutionTime = 1365.57 s  ClockTime = 1375 s

Time = 14.83

smoothSolver:  Solving for Ux, Initial residual = 0.02106, Final residual = 0.000435305, No Iterations 2
smoothSolver:  Solving for Uy, Initial residual = 0.0396331, Final residual = 0.000822625, No Iterations 2
smoothSolver:  Solving for Uz, Initial residual = 0.0469508, Final residual = 0.000955356, No Iterations 2
GAMG:  Solving for p, Initial residual = 0.109203, Final residual = 0.00601999, No Iterations 2
GAMG:  Solving for p, Initial residual = 0.0092123, Final residual = 0.000686444, No Iterations 4
time step continuity errors : sum local = 148.442, global = 0.893084, cumulative = -110.392
ExecutionTime = 1366.4 s  ClockTime = 1376 s

Time = 14.84

smoothSolver:  Solving for Ux, Initial residual = 0.0210222, Final residual = 0.000438735, No Iterations 2
smoothSolver:  Solving for Uy, Initial residual = 0.039416, Final residual = 0.0008199, No Iterations 2
smoothSolver:  Solving for Uz, Initial residual = 0.046855, Final residual = 0.000955117, No Iterations 2
GAMG:  Solving for p, Initial residual = 0.110028, Final residual = 0.00604877, No Iterations 2
GAMG:  Solving for p, Initial residual = 0.00923109, Final residual = 0.000728127, No Iterations 4
time step continuity errors : sum local = 156.465, global = 0.60809, cumulative = -109.784
ExecutionTime = 1367.26 s  ClockTime = 1377 s

Time = 14.85

smoothSolver:  Solving for Ux, Initial residual = 0.0209937, Final residual = 0.000439625, No Iterations 2
smoothSolver:  Solving for Uy, Initial residual = 0.0392175, Final residual = 0.000817305, No Iterations 2
smoothSolver:  Solving for Uz, Initial residual = 0.0467203, Final residual = 0.00095362, No Iterations 2
GAMG:  Solving for p, Initial residual = 0.110598, Final residual = 0.00607517, No Iterations 2
GAMG:  Solving for p, Initial residual = 0.00925334, Final residual = 0.00072694, No Iterations 4
time step continuity errors : sum local = 155.541, global = 1.87745, cumulative = -107.906
ExecutionTime = 1368.1 s  ClockTime = 1377 s

Time = 14.86

smoothSolver:  Solving for Ux, Initial residual = 0.0209611, Final residual = 0.000439839, No Iterations 2
smoothSolver:  Solving for Uy, Initial residual = 0.0389838, Final residual = 0.000808254, No Iterations 2
smoothSolver:  Solving for Uz, Initial residual = 0.046557, Final residual = 0.000955372, No Iterations 2
GAMG:  Solving for p, Initial residual = 0.110703, Final residual = 0.00608539, No Iterations 2
GAMG:  Solving for p, Initial residual = 0.00921392, Final residual = 0.000724479, No Iterations 4
time step continuity errors : sum local = 154.796, global = 1.69699, cumulative = -106.209
ExecutionTime = 1368.93 s  ClockTime = 1378 s

Time = 14.87

smoothSolver:  Solving for Ux, Initial residual = 0.0209153, Final residual = 0.000439918, No Iterations 2
smoothSolver:  Solving for Uy, Initial residual = 0.0387738, Final residual = 0.000806997, No Iterations 2
smoothSolver:  Solving for Uz, Initial residual = 0.046405, Final residual = 0.000963331, No Iterations 2
GAMG:  Solving for p, Initial residual = 0.110247, Final residual = 0.0060887, No Iterations 2
GAMG:  Solving for p, Initial residual = 0.00914264, Final residual = 0.000721026, No Iterations 4
time step continuity errors : sum local = 153.405, global = -0.190189, cumulative = -106.4
ExecutionTime = 1369.76 s  ClockTime = 1379 s

Time = 14.88

smoothSolver:  Solving for Ux, Initial residual = 0.0208604, Final residual = 0.00043954, No Iterations 2
smoothSolver:  Solving for Uy, Initial residual = 0.0386496, Final residual = 0.000803038, No Iterations 2
smoothSolver:  Solving for Uz, Initial residual = 0.0462666, Final residual = 0.000960791, No Iterations 2
GAMG:  Solving for p, Initial residual = 0.109998, Final residual = 0.0060593, No Iterations 2
GAMG:  Solving for p, Initial residual = 0.00907712, Final residual = 0.000712758, No Iterations 4
time step continuity errors : sum local = 151.177, global = -1.19743, cumulative = -107.597
ExecutionTime = 1370.6 s  ClockTime = 1380 s

Time = 14.89

smoothSolver:  Solving for Ux, Initial residual = 0.0208007, Final residual = 0.000441395, No Iterations 2
smoothSolver:  Solving for Uy, Initial residual = 0.038569, Final residual = 0.000800072, No Iterations 2
smoothSolver:  Solving for Uz, Initial residual = 0.0462164, Final residual = 0.000959906, No Iterations 2
GAMG:  Solving for p, Initial residual = 0.109939, Final residual = 0.00600935, No Iterations 2
GAMG:  Solving for p, Initial residual = 0.00903085, Final residual = 0.000690234, No Iterations 4
time step continuity errors : sum local = 145.849, global = -0.993227, cumulative = -108.59
ExecutionTime = 1371.45 s  ClockTime = 1381 s

Time = 14.9

smoothSolver:  Solving for Ux, Initial residual = 0.0207665, Final residual = 0.000443895, No Iterations 2
smoothSolver:  Solving for Uy, Initial residual = 0.0384873, Final residual = 0.000799462, No Iterations 2
smoothSolver:  Solving for Uz, Initial residual = 0.0462532, Final residual = 0.000962136, No Iterations 2
GAMG:  Solving for p, Initial residual = 0.109346, Final residual = 0.00596965, No Iterations 2
GAMG:  Solving for p, Initial residual = 0.0090093, Final residual = 0.00068236, No Iterations 4
time step continuity errors : sum local = 144.462, global = -1.02117, cumulative = -109.611
ExecutionTime = 1372.34 s  ClockTime = 1382 s

Time = 14.91

smoothSolver:  Solving for Ux, Initial residual = 0.0207397, Final residual = 0.000444695, No Iterations 2
smoothSolver:  Solving for Uy, Initial residual = 0.0384285, Final residual = 0.000804399, No Iterations 2
smoothSolver:  Solving for Uz, Initial residual = 0.0463277, Final residual = 0.000959669, No Iterations 2
GAMG:  Solving for p, Initial residual = 0.108733, Final residual = 0.00591946, No Iterations 2
GAMG:  Solving for p, Initial residual = 0.00895348, Final residual = 0.000685656, No Iterations 4
time step continuity errors : sum local = 145.752, global = -1.44556, cumulative = -111.057
ExecutionTime = 1373.29 s  ClockTime = 1383 s

Time = 14.92

smoothSolver:  Solving for Ux, Initial residual = 0.0207094, Final residual = 0.00044052, No Iterations 2
smoothSolver:  Solving for Uy, Initial residual = 0.0384325, Final residual = 0.000810886, No Iterations 2
smoothSolver:  Solving for Uz, Initial residual = 0.046381, Final residual = 0.000961694, No Iterations 2
GAMG:  Solving for p, Initial residual = 0.109265, Final residual = 0.00594596, No Iterations 2
GAMG:  Solving for p, Initial residual = 0.00900582, Final residual = 0.000695528, No Iterations 4
time step continuity errors : sum local = 146.904, global = -1.3615, cumulative = -112.419
ExecutionTime = 1374.36 s  ClockTime = 1384 s

Time = 14.93

smoothSolver:  Solving for Ux, Initial residual = 0.020668, Final residual = 0.000437896, No Iterations 2
smoothSolver:  Solving for Uy, Initial residual = 0.0385247, Final residual = 0.000815387, No Iterations 2
smoothSolver:  Solving for Uz, Initial residual = 0.046413, Final residual = 0.000962944, No Iterations 2
GAMG:  Solving for p, Initial residual = 0.109322, Final residual = 0.00593736, No Iterations 2
GAMG:  Solving for p, Initial residual = 0.00898524, Final residual = 0.000695099, No Iterations 4
time step continuity errors : sum local = 146.678, global = -1.41119, cumulative = -113.83
ExecutionTime = 1375.4 s  ClockTime = 1385 s

Time = 14.94

smoothSolver:  Solving for Ux, Initial residual = 0.0206098, Final residual = 0.000437937, No Iterations 2
smoothSolver:  Solving for Uy, Initial residual = 0.0387313, Final residual = 0.000821828, No Iterations 2
smoothSolver:  Solving for Uz, Initial residual = 0.0463956, Final residual = 0.000969344, No Iterations 2
GAMG:  Solving for p, Initial residual = 0.108889, Final residual = 0.00588347, No Iterations 2
GAMG:  Solving for p, Initial residual = 0.00895455, Final residual = 0.000691593, No Iterations 4
time step continuity errors : sum local = 145.8, global = -1.55833, cumulative = -115.388
ExecutionTime = 1376.4 s  ClockTime = 1386 s

Time = 14.95

smoothSolver:  Solving for Ux, Initial residual = 0.0205314, Final residual = 0.000441343, No Iterations 2
smoothSolver:  Solving for Uy, Initial residual = 0.0389685, Final residual = 0.000831553, No Iterations 2
smoothSolver:  Solving for Uz, Initial residual = 0.0463645, Final residual = 0.000974539, No Iterations 2
GAMG:  Solving for p, Initial residual = 0.107729, Final residual = 0.00581095, No Iterations 2
GAMG:  Solving for p, Initial residual = 0.00888241, Final residual = 0.000704444, No Iterations 4
time step continuity errors : sum local = 149.088, global = -1.91636, cumulative = -117.304
ExecutionTime = 1377.25 s  ClockTime = 1387 s

Time = 14.96

smoothSolver:  Solving for Ux, Initial residual = 0.0204291, Final residual = 0.000445516, No Iterations 2
smoothSolver:  Solving for Uy, Initial residual = 0.0391588, Final residual = 0.000838609, No Iterations 2
smoothSolver:  Solving for Uz, Initial residual = 0.0462814, Final residual = 0.000975387, No Iterations 2
GAMG:  Solving for p, Initial residual = 0.10719, Final residual = 0.00578129, No Iterations 2
GAMG:  Solving for p, Initial residual = 0.00889349, Final residual = 0.000690591, No Iterations 4
time step continuity errors : sum local = 146.011, global = -1.50247, cumulative = -118.807
ExecutionTime = 1378.14 s  ClockTime = 1387 s

Time = 14.97

smoothSolver:  Solving for Ux, Initial residual = 0.0203357, Final residual = 0.000448667, No Iterations 2
smoothSolver:  Solving for Uy, Initial residual = 0.0392631, Final residual = 0.000841899, No Iterations 2
smoothSolver:  Solving for Uz, Initial residual = 0.0461158, Final residual = 0.000971871, No Iterations 2
GAMG:  Solving for p, Initial residual = 0.105711, Final residual = 0.00571219, No Iterations 2
GAMG:  Solving for p, Initial residual = 0.00888372, Final residual = 0.000681327, No Iterations 4
time step continuity errors : sum local = 145.633, global = 0.165388, cumulative = -118.641
ExecutionTime = 1379.08 s  ClockTime = 1388 s

Time = 14.98

smoothSolver:  Solving for Ux, Initial residual = 0.020261, Final residual = 0.00044763, No Iterations 2
smoothSolver:  Solving for Uy, Initial residual = 0.0393206, Final residual = 0.000844511, No Iterations 2
smoothSolver:  Solving for Uz, Initial residual = 0.0459383, Final residual = 0.000970589, No Iterations 2
GAMG:  Solving for p, Initial residual = 0.10541, Final residual = 0.00575501, No Iterations 2
GAMG:  Solving for p, Initial residual = 0.00898006, Final residual = 0.000658136, No Iterations 4
time step continuity errors : sum local = 140.787, global = 0.71403, cumulative = -117.927
ExecutionTime = 1379.95 s  ClockTime = 1389 s

Time = 14.99

smoothSolver:  Solving for Ux, Initial residual = 0.0201924, Final residual = 0.000447003, No Iterations 2
smoothSolver:  Solving for Uy, Initial residual = 0.0393574, Final residual = 0.000845654, No Iterations 2
smoothSolver:  Solving for Uz, Initial residual = 0.0457536, Final residual = 0.00096627, No Iterations 2
GAMG:  Solving for p, Initial residual = 0.106824, Final residual = 0.00588906, No Iterations 2
GAMG:  Solving for p, Initial residual = 0.00922983, Final residual = 0.000681932, No Iterations 4
time step continuity errors : sum local = 144.023, global = 0.614478, cumulative = -117.313
ExecutionTime = 1380.99 s  ClockTime = 1390 s

Time = 15

smoothSolver:  Solving for Ux, Initial residual = 0.0201189, Final residual = 0.000446417, No Iterations 2
smoothSolver:  Solving for Uy, Initial residual = 0.0393395, Final residual = 0.000838901, No Iterations 2
smoothSolver:  Solving for Uz, Initial residual = 0.0455117, Final residual = 0.000961723, No Iterations 2
GAMG:  Solving for p, Initial residual = 0.106423, Final residual = 0.00591371, No Iterations 2
GAMG:  Solving for p, Initial residual = 0.00934926, Final residual = 0.000721055, No Iterations 4
time step continuity errors : sum local = 153.033, global = 0.468081, cumulative = -116.845
ExecutionTime = 1382.97 s  ClockTime = 1393 s

End

