/*---------------------------------------------------------------------------*\
  =========                 |
  \\      /  F ield         | OpenFOAM: The Open Source CFD Toolbox
   \\    /   O peration     | Website:  https://openfoam.org
    \\  /    A nd           | Version:  7
     \\/     M anipulation  |
\*---------------------------------------------------------------------------*/
Build  : 7-ca808c8420bf
Exec   : simpleFoam
Date   : Mar 19 2020
Time   : 12:22:03
Host   : "bn371671"
PID    : 5547
I/O    : uncollated
Case   : /hpc_atog/bsha219/Packages/PulmonaryCFD/BIF_CFMesh
nProcs : 1
sigFpe : Enabling floating point exception trapping (FOAM_SIGFPE).
fileModificationChecking : Monitoring run-time modified files using timeStampMaster (fileModificationSkew 10)
allowSystemOperations : Allowing user-supplied system call operations

// * * * * * * * * * * * * * * * * * * * * * * * * * * * * * * * * * * * * * //
Create time

Create mesh for time = 0


SIMPLE: Convergence criteria found
        p: tolerance 1e-06
        U: tolerance 1e-06
        "(k|epsilon|omega|f|v2)": tolerance 0.001

Reading field p

Reading field U

Reading/calculating face flux field phi

Selecting incompressible transport model Newtonian
Selecting turbulence model type laminar
Selecting laminar stress model Stokes
No MRF models present

No finite volume options present

Starting time loop

Time = 0.005

smoothSolver:  Solving for Ux, Initial residual = 1, Final residual = 0.0968265, No Iterations 3
smoothSolver:  Solving for Uy, Initial residual = 1, Final residual = 0.0737396, No Iterations 2
smoothSolver:  Solving for Uz, Initial residual = 1, Final residual = 0.0504356, No Iterations 4
GAMG:  Solving for p, Initial residual = 1, Final residual = 0.0799317, No Iterations 6
time step continuity errors : sum local = 0.00206621, global = -7.48343e-05, cumulative = -7.48343e-05
ExecutionTime = 3.65 s  ClockTime = 4 s

Time = 0.01

smoothSolver:  Solving for Ux, Initial residual = 0.164583, Final residual = 0.00897303, No Iterations 3
smoothSolver:  Solving for Uy, Initial residual = 0.12138, Final residual = 0.00795726, No Iterations 3
smoothSolver:  Solving for Uz, Initial residual = 0.123088, Final residual = 0.00753403, No Iterations 3
GAMG:  Solving for p, Initial residual = 0.0410079, Final residual = 0.00234212, No Iterations 5
time step continuity errors : sum local = 0.000845756, global = 6.33125e-06, cumulative = -6.8503e-05
ExecutionTime = 5.21 s  ClockTime = 5 s

Time = 0.015

smoothSolver:  Solving for Ux, Initial residual = 0.0573458, Final residual = 0.00267441, No Iterations 3
smoothSolver:  Solving for Uy, Initial residual = 0.0338836, Final residual = 0.00182787, No Iterations 3
smoothSolver:  Solving for Uz, Initial residual = 0.0552328, Final residual = 0.00388367, No Iterations 3
GAMG:  Solving for p, Initial residual = 0.0568394, Final residual = 0.00369285, No Iterations 5
time step continuity errors : sum local = 0.000575509, global = 1.34328e-05, cumulative = -5.50702e-05
ExecutionTime = 6.74 s  ClockTime = 7 s

Time = 0.02

smoothSolver:  Solving for Ux, Initial residual = 0.0327871, Final residual = 0.00308184, No Iterations 2
smoothSolver:  Solving for Uy, Initial residual = 0.0157239, Final residual = 0.00146121, No Iterations 2
smoothSolver:  Solving for Uz, Initial residual = 0.0223338, Final residual = 0.00101311, No Iterations 3
GAMG:  Solving for p, Initial residual = 0.071555, Final residual = 0.00631087, No Iterations 2
time step continuity errors : sum local = 0.000462063, global = 9.37017e-06, cumulative = -4.57001e-05
ExecutionTime = 8.05 s  ClockTime = 8 s

Time = 0.025

smoothSolver:  Solving for Ux, Initial residual = 0.0239459, Final residual = 0.00126469, No Iterations 3
smoothSolver:  Solving for Uy, Initial residual = 0.0110837, Final residual = 0.000570182, No Iterations 3
smoothSolver:  Solving for Uz, Initial residual = 0.0142442, Final residual = 0.000814676, No Iterations 3
GAMG:  Solving for p, Initial residual = 0.055265, Final residual = 0.005518, No Iterations 2
time step continuity errors : sum local = 0.000371843, global = 2.43953e-05, cumulative = -2.13047e-05
ExecutionTime = 9.3 s  ClockTime = 9 s

Time = 0.03

smoothSolver:  Solving for Ux, Initial residual = 0.0209454, Final residual = 0.00120266, No Iterations 3
smoothSolver:  Solving for Uy, Initial residual = 0.00943628, Final residual = 0.000543607, No Iterations 3
smoothSolver:  Solving for Uz, Initial residual = 0.011814, Final residual = 0.000718517, No Iterations 3
GAMG:  Solving for p, Initial residual = 0.0465665, Final residual = 0.00337656, No Iterations 4
time step continuity errors : sum local = 0.000215678, global = 8.10276e-06, cumulative = -1.3202e-05
ExecutionTime = 10.72 s  ClockTime = 11 s

Time = 0.035

smoothSolver:  Solving for Ux, Initial residual = 0.0193486, Final residual = 0.00114507, No Iterations 3
smoothSolver:  Solving for Uy, Initial residual = 0.00835798, Final residual = 0.00050424, No Iterations 3
smoothSolver:  Solving for Uz, Initial residual = 0.0120767, Final residual = 0.000787308, No Iterations 3
GAMG:  Solving for p, Initial residual = 0.0410365, Final residual = 0.00317653, No Iterations 2
time step continuity errors : sum local = 0.000190657, global = 4.80373e-05, cumulative = 3.48353e-05
ExecutionTime = 12.01 s  ClockTime = 12 s

Time = 0.04

smoothSolver:  Solving for Ux, Initial residual = 0.0169055, Final residual = 0.00106487, No Iterations 3
smoothSolver:  Solving for Uy, Initial residual = 0.00760643, Final residual = 0.000481006, No Iterations 3
smoothSolver:  Solving for Uz, Initial residual = 0.0110819, Final residual = 0.000749094, No Iterations 3
GAMG:  Solving for p, Initial residual = 0.034217, Final residual = 0.00277647, No Iterations 3
time step continuity errors : sum local = 0.000169534, global = -9.61166e-06, cumulative = 2.52237e-05
ExecutionTime = 13.42 s  ClockTime = 13 s

Time = 0.045

smoothSolver:  Solving for Ux, Initial residual = 0.014862, Final residual = 0.0009548, No Iterations 3
smoothSolver:  Solving for Uy, Initial residual = 0.0071434, Final residual = 0.000449546, No Iterations 3
smoothSolver:  Solving for Uz, Initial residual = 0.0100256, Final residual = 0.000680626, No Iterations 3
GAMG:  Solving for p, Initial residual = 0.0288812, Final residual = 0.00147955, No Iterations 6
time step continuity errors : sum local = 9.14416e-05, global = -4.13032e-06, cumulative = 2.10934e-05
ExecutionTime = 14.97 s  ClockTime = 15 s

Time = 0.05

smoothSolver:  Solving for Ux, Initial residual = 0.0141106, Final residual = 0.000892692, No Iterations 3
smoothSolver:  Solving for Uy, Initial residual = 0.00727104, Final residual = 0.00044701, No Iterations 3
smoothSolver:  Solving for Uz, Initial residual = 0.00999738, Final residual = 0.000642442, No Iterations 3
GAMG:  Solving for p, Initial residual = 0.0220178, Final residual = 0.00187884, No Iterations 2
time step continuity errors : sum local = 0.000128894, global = 3.50395e-05, cumulative = 5.61329e-05
ExecutionTime = 16.27 s  ClockTime = 16 s

Time = 0.055

smoothSolver:  Solving for Ux, Initial residual = 0.0120848, Final residual = 0.000828258, No Iterations 3
smoothSolver:  Solving for Uy, Initial residual = 0.00651194, Final residual = 0.000428868, No Iterations 3
smoothSolver:  Solving for Uz, Initial residual = 0.00870586, Final residual = 0.000607152, No Iterations 3
GAMG:  Solving for p, Initial residual = 0.0194269, Final residual = 0.00174116, No Iterations 3
time step continuity errors : sum local = 0.000119066, global = 5.26674e-06, cumulative = 6.13996e-05
ExecutionTime = 17.59 s  ClockTime = 18 s

Time = 0.06

smoothSolver:  Solving for Ux, Initial residual = 0.0111441, Final residual = 0.000768034, No Iterations 3
smoothSolver:  Solving for Uy, Initial residual = 0.00610252, Final residual = 0.000399361, No Iterations 3
smoothSolver:  Solving for Uz, Initial residual = 0.00804332, Final residual = 0.000564848, No Iterations 3
GAMG:  Solving for p, Initial residual = 0.0177619, Final residual = 0.00105183, No Iterations 4
time step continuity errors : sum local = 7.01456e-05, global = 2.2302e-06, cumulative = 6.36298e-05
ExecutionTime = 19.03 s  ClockTime = 19 s

Time = 0.065

smoothSolver:  Solving for Ux, Initial residual = 0.0104907, Final residual = 0.000733623, No Iterations 3
smoothSolver:  Solving for Uy, Initial residual = 0.005817, Final residual = 0.000383537, No Iterations 3
smoothSolver:  Solving for Uz, Initial residual = 0.00756729, Final residual = 0.000530057, No Iterations 3
GAMG:  Solving for p, Initial residual = 0.0165618, Final residual = 0.00151136, No Iterations 2
time step continuity errors : sum local = 9.77646e-05, global = 7.59314e-06, cumulative = 7.1223e-05
ExecutionTime = 20.28 s  ClockTime = 20 s

Time = 0.07

smoothSolver:  Solving for Ux, Initial residual = 0.0097763, Final residual = 0.000699373, No Iterations 3
smoothSolver:  Solving for Uy, Initial residual = 0.00555658, Final residual = 0.000373442, No Iterations 3
smoothSolver:  Solving for Uz, Initial residual = 0.00717473, Final residual = 0.000513345, No Iterations 3
GAMG:  Solving for p, Initial residual = 0.0157045, Final residual = 0.00103309, No Iterations 3
time step continuity errors : sum local = 6.63682e-05, global = -7.23612e-06, cumulative = 6.39868e-05
ExecutionTime = 21.65 s  ClockTime = 22 s

Time = 0.075

smoothSolver:  Solving for Ux, Initial residual = 0.00935069, Final residual = 0.000671936, No Iterations 3
smoothSolver:  Solving for Uy, Initial residual = 0.00541379, Final residual = 0.000363624, No Iterations 3
smoothSolver:  Solving for Uz, Initial residual = 0.00704752, Final residual = 0.000505579, No Iterations 3
GAMG:  Solving for p, Initial residual = 0.0143722, Final residual = 0.00130511, No Iterations 2
time step continuity errors : sum local = 8.32516e-05, global = -7.6478e-06, cumulative = 5.6339e-05
ExecutionTime = 22.93 s  ClockTime = 23 s

Time = 0.08

smoothSolver:  Solving for Ux, Initial residual = 0.00889784, Final residual = 0.000646235, No Iterations 3
smoothSolver:  Solving for Uy, Initial residual = 0.0052212, Final residual = 0.000355452, No Iterations 3
smoothSolver:  Solving for Uz, Initial residual = 0.00681246, Final residual = 0.000493984, No Iterations 3
GAMG:  Solving for p, Initial residual = 0.0139085, Final residual = 0.000703195, No Iterations 4
time step continuity errors : sum local = 4.48267e-05, global = -3.42392e-06, cumulative = 5.29151e-05
ExecutionTime = 24.36 s  ClockTime = 24 s

Time = 0.085

smoothSolver:  Solving for Ux, Initial residual = 0.00867334, Final residual = 0.000622528, No Iterations 3
smoothSolver:  Solving for Uy, Initial residual = 0.00512046, Final residual = 0.00034734, No Iterations 3
smoothSolver:  Solving for Uz, Initial residual = 0.00700011, Final residual = 0.000503258, No Iterations 3
GAMG:  Solving for p, Initial residual = 0.0124038, Final residual = 0.00096716, No Iterations 2
time step continuity errors : sum local = 6.33511e-05, global = 3.949e-07, cumulative = 5.331e-05
ExecutionTime = 25.4 s  ClockTime = 25 s

Time = 0.09

smoothSolver:  Solving for Ux, Initial residual = 0.0082252, Final residual = 0.000599118, No Iterations 3
smoothSolver:  Solving for Uy, Initial residual = 0.0049254, Final residual = 0.000338984, No Iterations 3
smoothSolver:  Solving for Uz, Initial residual = 0.00663818, Final residual = 0.000484222, No Iterations 3
GAMG:  Solving for p, Initial residual = 0.012067, Final residual = 0.00066554, No Iterations 3
time step continuity errors : sum local = 4.3407e-05, global = -1.92229e-07, cumulative = 5.31178e-05
ExecutionTime = 26.35 s  ClockTime = 26 s

Time = 0.095

smoothSolver:  Solving for Ux, Initial residual = 0.00796825, Final residual = 0.000581503, No Iterations 3
smoothSolver:  Solving for Uy, Initial residual = 0.00480555, Final residual = 0.000330398, No Iterations 3
smoothSolver:  Solving for Uz, Initial residual = 0.00647478, Final residual = 0.000472908, No Iterations 3
GAMG:  Solving for p, Initial residual = 0.0112317, Final residual = 0.00101468, No Iterations 2
time step continuity errors : sum local = 6.6067e-05, global = -2.43641e-06, cumulative = 5.06814e-05
ExecutionTime = 27.61 s  ClockTime = 28 s

Time = 0.1

smoothSolver:  Solving for Ux, Initial residual = 0.00768345, Final residual = 0.000562211, No Iterations 3
smoothSolver:  Solving for Uy, Initial residual = 0.00468534, Final residual = 0.000325054, No Iterations 3
smoothSolver:  Solving for Uz, Initial residual = 0.00624702, Final residual = 0.000458738, No Iterations 3
GAMG:  Solving for p, Initial residual = 0.011127, Final residual = 0.000800661, No Iterations 3
time step continuity errors : sum local = 5.20999e-05, global = -1.19804e-07, cumulative = 5.05616e-05
ExecutionTime = 29.1 s  ClockTime = 29 s

Time = 0.105

smoothSolver:  Solving for Ux, Initial residual = 0.00752005, Final residual = 0.000547872, No Iterations 3
smoothSolver:  Solving for Uy, Initial residual = 0.0046179, Final residual = 0.000320008, No Iterations 3
smoothSolver:  Solving for Uz, Initial residual = 0.00620305, Final residual = 0.000453789, No Iterations 3
GAMG:  Solving for p, Initial residual = 0.0103954, Final residual = 0.000925658, No Iterations 2
time step continuity errors : sum local = 6.06269e-05, global = -2.74546e-06, cumulative = 4.78161e-05
ExecutionTime = 30.32 s  ClockTime = 30 s

Time = 0.11

smoothSolver:  Solving for Ux, Initial residual = 0.0072016, Final residual = 0.000525756, No Iterations 3
smoothSolver:  Solving for Uy, Initial residual = 0.00451649, Final residual = 0.000315875, No Iterations 3
smoothSolver:  Solving for Uz, Initial residual = 0.00597685, Final residual = 0.000439729, No Iterations 3
GAMG:  Solving for p, Initial residual = 0.0104081, Final residual = 0.000762707, No Iterations 3
time step continuity errors : sum local = 4.99565e-05, global = 2.69538e-07, cumulative = 4.80856e-05
ExecutionTime = 31.64 s  ClockTime = 32 s

Time = 0.115

smoothSolver:  Solving for Ux, Initial residual = 0.00702887, Final residual = 0.00050947, No Iterations 3
smoothSolver:  Solving for Uy, Initial residual = 0.00444986, Final residual = 0.00031015, No Iterations 3
smoothSolver:  Solving for Uz, Initial residual = 0.00593998, Final residual = 0.000434965, No Iterations 3
GAMG:  Solving for p, Initial residual = 0.00976094, Final residual = 0.000879768, No Iterations 2
time step continuity errors : sum local = 5.81911e-05, global = -1.577e-06, cumulative = 4.65087e-05
ExecutionTime = 32.91 s  ClockTime = 33 s

Time = 0.12

smoothSolver:  Solving for Ux, Initial residual = 0.00673803, Final residual = 0.000489132, No Iterations 3
smoothSolver:  Solving for Uy, Initial residual = 0.00437408, Final residual = 0.000307297, No Iterations 3
smoothSolver:  Solving for Uz, Initial residual = 0.00572212, Final residual = 0.00042084, No Iterations 3
GAMG:  Solving for p, Initial residual = 0.00982029, Final residual = 0.00069864, No Iterations 3
time step continuity errors : sum local = 4.62632e-05, global = -4.32357e-08, cumulative = 4.64654e-05
ExecutionTime = 34.24 s  ClockTime = 34 s

Time = 0.125

smoothSolver:  Solving for Ux, Initial residual = 0.00657432, Final residual = 0.000474587, No Iterations 3
smoothSolver:  Solving for Uy, Initial residual = 0.00432796, Final residual = 0.000303096, No Iterations 3
smoothSolver:  Solving for Uz, Initial residual = 0.00566436, Final residual = 0.000414177, No Iterations 3
GAMG:  Solving for p, Initial residual = 0.0092272, Final residual = 0.000836734, No Iterations 2
time step continuity errors : sum local = 5.58783e-05, global = -1.73994e-06, cumulative = 4.47255e-05
ExecutionTime = 35.47 s  ClockTime = 35 s

Time = 0.13

smoothSolver:  Solving for Ux, Initial residual = 0.00631584, Final residual = 0.00045601, No Iterations 3
smoothSolver:  Solving for Uy, Initial residual = 0.00425805, Final residual = 0.000300053, No Iterations 3
smoothSolver:  Solving for Uz, Initial residual = 0.00546616, Final residual = 0.00040086, No Iterations 3
GAMG:  Solving for p, Initial residual = 0.00932492, Final residual = 0.000636834, No Iterations 3
time step continuity errors : sum local = 4.26207e-05, global = -3.45856e-07, cumulative = 4.43796e-05
ExecutionTime = 36.75 s  ClockTime = 37 s

Time = 0.135

smoothSolver:  Solving for Ux, Initial residual = 0.00616232, Final residual = 0.000442115, No Iterations 3
smoothSolver:  Solving for Uy, Initial residual = 0.00421357, Final residual = 0.000295884, No Iterations 3
smoothSolver:  Solving for Uz, Initial residual = 0.00541084, Final residual = 0.000394052, No Iterations 3
GAMG:  Solving for p, Initial residual = 0.00877169, Final residual = 0.000794643, No Iterations 2
time step continuity errors : sum local = 5.36421e-05, global = -2.01133e-06, cumulative = 4.23683e-05
ExecutionTime = 37.98 s  ClockTime = 38 s

Time = 0.14

smoothSolver:  Solving for Ux, Initial residual = 0.00593722, Final residual = 0.000425714, No Iterations 3
smoothSolver:  Solving for Uy, Initial residual = 0.00414385, Final residual = 0.000292631, No Iterations 3
smoothSolver:  Solving for Uz, Initial residual = 0.00523175, Final residual = 0.000381843, No Iterations 3
GAMG:  Solving for p, Initial residual = 0.00890812, Final residual = 0.000606254, No Iterations 3
time step continuity errors : sum local = 4.10385e-05, global = -3.62325e-07, cumulative = 4.2006e-05
ExecutionTime = 39.3 s  ClockTime = 39 s

Time = 0.145

smoothSolver:  Solving for Ux, Initial residual = 0.00580086, Final residual = 0.000413034, No Iterations 3
smoothSolver:  Solving for Uy, Initial residual = 0.00409793, Final residual = 0.000288429, No Iterations 3
smoothSolver:  Solving for Uz, Initial residual = 0.0051842, Final residual = 0.000375726, No Iterations 3
GAMG:  Solving for p, Initial residual = 0.00839917, Final residual = 0.000765711, No Iterations 2
time step continuity errors : sum local = 5.23278e-05, global = -1.71294e-06, cumulative = 4.0293e-05
ExecutionTime = 40.53 s  ClockTime = 41 s

Time = 0.15

smoothSolver:  Solving for Ux, Initial residual = 0.00559678, Final residual = 0.000398218, No Iterations 3
smoothSolver:  Solving for Uy, Initial residual = 0.00402746, Final residual = 0.000285312, No Iterations 3
smoothSolver:  Solving for Uz, Initial residual = 0.00502255, Final residual = 0.000364913, No Iterations 3
GAMG:  Solving for p, Initial residual = 0.00855139, Final residual = 0.000554462, No Iterations 3
time step continuity errors : sum local = 3.79987e-05, global = -6.50479e-07, cumulative = 3.96426e-05
ExecutionTime = 41.97 s  ClockTime = 42 s

Time = 0.155

smoothSolver:  Solving for Ux, Initial residual = 0.00546215, Final residual = 0.000386056, No Iterations 3
smoothSolver:  Solving for Uy, Initial residual = 0.00397979, Final residual = 0.000281045, No Iterations 3
smoothSolver:  Solving for Uz, Initial residual = 0.00497046, Final residual = 0.000359177, No Iterations 3
GAMG:  Solving for p, Initial residual = 0.00805979, Final residual = 0.00073772, No Iterations 2
time step continuity errors : sum local = 5.09467e-05, global = -1.78896e-06, cumulative = 3.78536e-05
ExecutionTime = 43.24 s  ClockTime = 43 s

Time = 0.16

smoothSolver:  Solving for Ux, Initial residual = 0.00528666, Final residual = 0.00037338, No Iterations 3
smoothSolver:  Solving for Uy, Initial residual = 0.00391053, Final residual = 0.000277818, No Iterations 3
smoothSolver:  Solving for Uz, Initial residual = 0.00482444, Final residual = 0.00034962, No Iterations 3
GAMG:  Solving for p, Initial residual = 0.00823078, Final residual = 0.000509502, No Iterations 3
time step continuity errors : sum local = 3.52921e-05, global = -8.15871e-07, cumulative = 3.70377e-05
ExecutionTime = 44.61 s  ClockTime = 45 s

Time = 0.165

smoothSolver:  Solving for Ux, Initial residual = 0.005162, Final residual = 0.000362147, No Iterations 3
smoothSolver:  Solving for Uy, Initial residual = 0.00386123, Final residual = 0.00027332, No Iterations 3
smoothSolver:  Solving for Uz, Initial residual = 0.00477071, Final residual = 0.000343839, No Iterations 3
GAMG:  Solving for p, Initial residual = 0.007782, Final residual = 0.00071391, No Iterations 2
time step continuity errors : sum local = 4.98159e-05, global = -1.64484e-06, cumulative = 3.53929e-05
ExecutionTime = 45.89 s  ClockTime = 46 s

Time = 0.17

smoothSolver:  Solving for Ux, Initial residual = 0.00500663, Final residual = 0.000351294, No Iterations 3
smoothSolver:  Solving for Uy, Initial residual = 0.00379168, Final residual = 0.000269908, No Iterations 3
smoothSolver:  Solving for Uz, Initial residual = 0.00464094, Final residual = 0.000334783, No Iterations 3
GAMG:  Solving for p, Initial residual = 0.00799204, Final residual = 0.000473545, No Iterations 3
time step continuity errors : sum local = 3.31534e-05, global = -9.5167e-07, cumulative = 3.44412e-05
ExecutionTime = 47.29 s  ClockTime = 47 s

Time = 0.175

smoothSolver:  Solving for Ux, Initial residual = 0.00488802, Final residual = 0.000340881, No Iterations 3
smoothSolver:  Solving for Uy, Initial residual = 0.00373971, Final residual = 0.000265111, No Iterations 3
smoothSolver:  Solving for Uz, Initial residual = 0.00458084, Final residual = 0.000328095, No Iterations 3
GAMG:  Solving for p, Initial residual = 0.00759427, Final residual = 0.000695876, No Iterations 2
time step continuity errors : sum local = 4.90269e-05, global = -1.49871e-06, cumulative = 3.29425e-05
ExecutionTime = 48.55 s  ClockTime = 49 s

Time = 0.18

smoothSolver:  Solving for Ux, Initial residual = 0.0047488, Final residual = 0.000331522, No Iterations 3
smoothSolver:  Solving for Uy, Initial residual = 0.00366866, Final residual = 0.000261327, No Iterations 3
smoothSolver:  Solving for Uz, Initial residual = 0.00445952, Final residual = 0.000319249, No Iterations 3
GAMG:  Solving for p, Initial residual = 0.00784109, Final residual = 0.000439602, No Iterations 3
time step continuity errors : sum local = 3.10774e-05, global = -1.02072e-06, cumulative = 3.19218e-05
ExecutionTime = 49.94 s  ClockTime = 50 s

Time = 0.185

smoothSolver:  Solving for Ux, Initial residual = 0.00463461, Final residual = 0.000321698, No Iterations 3
smoothSolver:  Solving for Uy, Initial residual = 0.00360892, Final residual = 0.000255765, No Iterations 3
smoothSolver:  Solving for Uz, Initial residual = 0.00439065, Final residual = 0.000311815, No Iterations 3
GAMG:  Solving for p, Initial residual = 0.00745575, Final residual = 0.000676924, No Iterations 2
time step continuity errors : sum local = 4.81358e-05, global = -1.27097e-06, cumulative = 3.06508e-05
ExecutionTime = 51.29 s  ClockTime = 51 s

Time = 0.19

smoothSolver:  Solving for Ux, Initial residual = 0.00450856, Final residual = 0.000313346, No Iterations 3
smoothSolver:  Solving for Uy, Initial residual = 0.00353318, Final residual = 0.000251292, No Iterations 3
smoothSolver:  Solving for Uz, Initial residual = 0.00427435, Final residual = 0.000303131, No Iterations 3
GAMG:  Solving for p, Initial residual = 0.00770851, Final residual = 0.000410012, No Iterations 3
time step continuity errors : sum local = 2.92745e-05, global = -9.25497e-07, cumulative = 2.97253e-05
ExecutionTime = 52.72 s  ClockTime = 53 s

Time = 0.195

smoothSolver:  Solving for Ux, Initial residual = 0.00440134, Final residual = 0.000304163, No Iterations 3
smoothSolver:  Solving for Uy, Initial residual = 0.00346442, Final residual = 0.00024485, No Iterations 3
smoothSolver:  Solving for Uz, Initial residual = 0.00419471, Final residual = 0.00029477, No Iterations 3
GAMG:  Solving for p, Initial residual = 0.00733055, Final residual = 0.000654446, No Iterations 2
time step continuity errors : sum local = 4.69992e-05, global = -9.88144e-07, cumulative = 2.87372e-05
ExecutionTime = 54.07 s  ClockTime = 54 s

Time = 0.2

smoothSolver:  Solving for Ux, Initial residual = 0.00428671, Final residual = 0.000296575, No Iterations 3
smoothSolver:  Solving for Uy, Initial residual = 0.00338554, Final residual = 0.000239756, No Iterations 3
smoothSolver:  Solving for Uz, Initial residual = 0.00407763, Final residual = 0.000286157, No Iterations 3
GAMG:  Solving for p, Initial residual = 0.00758884, Final residual = 0.000384201, No Iterations 3
time step continuity errors : sum local = 2.77085e-05, global = -7.99768e-07, cumulative = 2.79374e-05
ExecutionTime = 55.54 s  ClockTime = 56 s

Time = 0.205

smoothSolver:  Solving for Ux, Initial residual = 0.0041886, Final residual = 0.000288155, No Iterations 3
smoothSolver:  Solving for Uy, Initial residual = 0.00331042, Final residual = 0.000232516, No Iterations 3
smoothSolver:  Solving for Uz, Initial residual = 0.00399141, Final residual = 0.000277627, No Iterations 3
GAMG:  Solving for p, Initial residual = 0.00718227, Final residual = 0.000630689, No Iterations 2
time step continuity errors : sum local = 4.5739e-05, global = -8.04323e-07, cumulative = 2.71331e-05
ExecutionTime = 56.81 s  ClockTime = 57 s

Time = 0.21

smoothSolver:  Solving for Ux, Initial residual = 0.00408557, Final residual = 0.000281343, No Iterations 3
smoothSolver:  Solving for Uy, Initial residual = 0.0032304, Final residual = 0.000226948, No Iterations 3
smoothSolver:  Solving for Uz, Initial residual = 0.0038756, Final residual = 0.000269335, No Iterations 3
GAMG:  Solving for p, Initial residual = 0.00742578, Final residual = 0.000358973, No Iterations 3
time step continuity errors : sum local = 2.61462e-05, global = -7.53322e-07, cumulative = 2.63798e-05
ExecutionTime = 58.22 s  ClockTime = 58 s

Time = 0.215

smoothSolver:  Solving for Ux, Initial residual = 0.00399927, Final residual = 0.00027391, No Iterations 3
smoothSolver:  Solving for Uy, Initial residual = 0.00315219, Final residual = 0.000219415, No Iterations 3
smoothSolver:  Solving for Uz, Initial residual = 0.00378796, Final residual = 0.000260899, No Iterations 3
GAMG:  Solving for p, Initial residual = 0.00700048, Final residual = 0.000601647, No Iterations 2
time step continuity errors : sum local = 4.40599e-05, global = -7.56168e-07, cumulative = 2.56236e-05
ExecutionTime = 59.47 s  ClockTime = 59 s

Time = 0.22

smoothSolver:  Solving for Ux, Initial residual = 0.00390741, Final residual = 0.000267935, No Iterations 3
smoothSolver:  Solving for Uy, Initial residual = 0.00307211, Final residual = 0.000213637, No Iterations 3
smoothSolver:  Solving for Uz, Initial residual = 0.00367356, Final residual = 0.000252864, No Iterations 3
GAMG:  Solving for p, Initial residual = 0.00722083, Final residual = 0.000713984, No Iterations 2
time step continuity errors : sum local = 5.25123e-05, global = -1.0403e-06, cumulative = 2.45833e-05
ExecutionTime = 60.75 s  ClockTime = 61 s

Time = 0.225

smoothSolver:  Solving for Ux, Initial residual = 0.00382884, Final residual = 0.00026185, No Iterations 3
smoothSolver:  Solving for Uy, Initial residual = 0.00299549, Final residual = 0.000206862, No Iterations 3
smoothSolver:  Solving for Uz, Initial residual = 0.00357402, Final residual = 0.000244544, No Iterations 3
GAMG:  Solving for p, Initial residual = 0.00713225, Final residual = 0.000342017, No Iterations 3
time step continuity errors : sum local = 2.52698e-05, global = -7.59184e-07, cumulative = 2.38241e-05
ExecutionTime = 62.09 s  ClockTime = 62 s

Time = 0.23

smoothSolver:  Solving for Ux, Initial residual = 0.00375758, Final residual = 0.000255989, No Iterations 3
smoothSolver:  Solving for Uy, Initial residual = 0.00291809, Final residual = 0.000199077, No Iterations 3
smoothSolver:  Solving for Uz, Initial residual = 0.00349535, Final residual = 0.000237215, No Iterations 3
GAMG:  Solving for p, Initial residual = 0.00665813, Final residual = 0.000533348, No Iterations 2
time step continuity errors : sum local = 3.96268e-05, global = -6.07267e-07, cumulative = 2.32168e-05
ExecutionTime = 63.34 s  ClockTime = 63 s

Time = 0.235

smoothSolver:  Solving for Ux, Initial residual = 0.0036731, Final residual = 0.000250786, No Iterations 3
smoothSolver:  Solving for Uy, Initial residual = 0.00284104, Final residual = 0.000193447, No Iterations 3
smoothSolver:  Solving for Uz, Initial residual = 0.0033859, Final residual = 0.000230021, No Iterations 3
GAMG:  Solving for p, Initial residual = 0.00686017, Final residual = 0.000640268, No Iterations 2
time step continuity errors : sum local = 4.7765e-05, global = -8.81684e-07, cumulative = 2.23352e-05
ExecutionTime = 64.57 s  ClockTime = 65 s

Time = 0.24

smoothSolver:  Solving for Ux, Initial residual = 0.00360454, Final residual = 0.000245528, No Iterations 3
smoothSolver:  Solving for Uy, Initial residual = 0.00277053, Final residual = 0.000187204, No Iterations 3
smoothSolver:  Solving for Uz, Initial residual = 0.00328965, Final residual = 0.000222244, No Iterations 3
GAMG:  Solving for p, Initial residual = 0.00677626, Final residual = 0.000650947, No Iterations 2
time step continuity errors : sum local = 4.87665e-05, global = -1.1932e-06, cumulative = 2.11419e-05
ExecutionTime = 65.79 s  ClockTime = 66 s

Time = 0.245

smoothSolver:  Solving for Ux, Initial residual = 0.00353809, Final residual = 0.000240601, No Iterations 3
smoothSolver:  Solving for Uy, Initial residual = 0.00269941, Final residual = 0.000180751, No Iterations 3
smoothSolver:  Solving for Uz, Initial residual = 0.00319833, Final residual = 0.000214828, No Iterations 3
GAMG:  Solving for p, Initial residual = 0.00662317, Final residual = 0.000628644, No Iterations 2
time step continuity errors : sum local = 4.72916e-05, global = -1.42966e-06, cumulative = 1.97123e-05
ExecutionTime = 67.01 s  ClockTime = 67 s

Time = 0.25

smoothSolver:  Solving for Ux, Initial residual = 0.00347201, Final residual = 0.000235935, No Iterations 3
smoothSolver:  Solving for Uy, Initial residual = 0.00262981, Final residual = 0.000174619, No Iterations 3
smoothSolver:  Solving for Uz, Initial residual = 0.00311219, Final residual = 0.000207961, No Iterations 3
GAMG:  Solving for p, Initial residual = 0.0064868, Final residual = 0.000602916, No Iterations 2
time step continuity errors : sum local = 4.55374e-05, global = -1.60648e-06, cumulative = 1.81058e-05
ExecutionTime = 69.28 s  ClockTime = 70 s

Time = 0.255

smoothSolver:  Solving for Ux, Initial residual = 0.00340651, Final residual = 0.000231343, No Iterations 3
smoothSolver:  Solving for Uy, Initial residual = 0.00256219, Final residual = 0.000168921, No Iterations 3
smoothSolver:  Solving for Uz, Initial residual = 0.0030291, Final residual = 0.000201433, No Iterations 3
GAMG:  Solving for p, Initial residual = 0.00636418, Final residual = 0.000581108, No Iterations 2
time step continuity errors : sum local = 4.4061e-05, global = -1.75376e-06, cumulative = 1.6352e-05
ExecutionTime = 70.57 s  ClockTime = 71 s

Time = 0.26

smoothSolver:  Solving for Ux, Initial residual = 0.00334317, Final residual = 0.000226789, No Iterations 3
smoothSolver:  Solving for Uy, Initial residual = 0.00249693, Final residual = 0.000163527, No Iterations 3
smoothSolver:  Solving for Uz, Initial residual = 0.00294908, Final residual = 0.000195089, No Iterations 3
GAMG:  Solving for p, Initial residual = 0.0062406, Final residual = 0.000562164, No Iterations 2
time step continuity errors : sum local = 4.2788e-05, global = -1.85279e-06, cumulative = 1.44993e-05
ExecutionTime = 71.85 s  ClockTime = 72 s

Time = 0.265

smoothSolver:  Solving for Ux, Initial residual = 0.0032804, Final residual = 0.000222289, No Iterations 3
smoothSolver:  Solving for Uy, Initial residual = 0.00243292, Final residual = 0.000158301, No Iterations 3
smoothSolver:  Solving for Uz, Initial residual = 0.0028701, Final residual = 0.000188821, No Iterations 3
GAMG:  Solving for p, Initial residual = 0.00611407, Final residual = 0.000545912, No Iterations 2
time step continuity errors : sum local = 4.17092e-05, global = -1.88123e-06, cumulative = 1.2618e-05
ExecutionTime = 73.1 s  ClockTime = 73 s

Time = 0.27

smoothSolver:  Solving for Ux, Initial residual = 0.0032177, Final residual = 0.000217766, No Iterations 3
smoothSolver:  Solving for Uy, Initial residual = 0.00236889, Final residual = 0.000153258, No Iterations 3
smoothSolver:  Solving for Uz, Initial residual = 0.00279138, Final residual = 0.000182566, No Iterations 3
GAMG:  Solving for p, Initial residual = 0.00598612, Final residual = 0.000533127, No Iterations 2
time step continuity errors : sum local = 4.08813e-05, global = -1.86041e-06, cumulative = 1.07576e-05
ExecutionTime = 74.41 s  ClockTime = 75 s

Time = 0.275

smoothSolver:  Solving for Ux, Initial residual = 0.00315478, Final residual = 0.00021327, No Iterations 3
smoothSolver:  Solving for Uy, Initial residual = 0.00230442, Final residual = 0.000148348, No Iterations 3
smoothSolver:  Solving for Uz, Initial residual = 0.00271145, Final residual = 0.000176247, No Iterations 3
GAMG:  Solving for p, Initial residual = 0.00585857, Final residual = 0.000522022, No Iterations 2
time step continuity errors : sum local = 4.01669e-05, global = -1.82721e-06, cumulative = 8.93041e-06
ExecutionTime = 75.69 s  ClockTime = 76 s

Time = 0.28

smoothSolver:  Solving for Ux, Initial residual = 0.0030924, Final residual = 0.000208747, No Iterations 3
smoothSolver:  Solving for Uy, Initial residual = 0.00223973, Final residual = 0.000143499, No Iterations 3
smoothSolver:  Solving for Uz, Initial residual = 0.00263068, Final residual = 0.000169843, No Iterations 3
GAMG:  Solving for p, Initial residual = 0.00572974, Final residual = 0.000509392, No Iterations 2
time step continuity errors : sum local = 3.93209e-05, global = -1.80655e-06, cumulative = 7.12385e-06
ExecutionTime = 76.96 s  ClockTime = 77 s

Time = 0.285

smoothSolver:  Solving for Ux, Initial residual = 0.00303099, Final residual = 0.000204207, No Iterations 3
smoothSolver:  Solving for Uy, Initial residual = 0.0021749, Final residual = 0.000138719, No Iterations 3
smoothSolver:  Solving for Uz, Initial residual = 0.00254911, Final residual = 0.000163425, No Iterations 3
GAMG:  Solving for p, Initial residual = 0.00559476, Final residual = 0.000493516, No Iterations 2
time step continuity errors : sum local = 3.82107e-05, global = -1.80499e-06, cumulative = 5.31886e-06
ExecutionTime = 78.29 s  ClockTime = 79 s

Time = 0.29

smoothSolver:  Solving for Ux, Initial residual = 0.00296969, Final residual = 0.000199587, No Iterations 3
smoothSolver:  Solving for Uy, Initial residual = 0.00210931, Final residual = 0.000133957, No Iterations 3
smoothSolver:  Solving for Uz, Initial residual = 0.00246805, Final residual = 0.000157029, No Iterations 3
GAMG:  Solving for p, Initial residual = 0.00545534, Final residual = 0.000474889, No Iterations 2
time step continuity errors : sum local = 3.68734e-05, global = -1.81711e-06, cumulative = 3.50175e-06
ExecutionTime = 79.46 s  ClockTime = 80 s

Time = 0.295

smoothSolver:  Solving for Ux, Initial residual = 0.00290773, Final residual = 0.000195001, No Iterations 3
smoothSolver:  Solving for Uy, Initial residual = 0.00204428, Final residual = 0.000129223, No Iterations 3
smoothSolver:  Solving for Uz, Initial residual = 0.00238752, Final residual = 0.000150698, No Iterations 3
GAMG:  Solving for p, Initial residual = 0.0053187, Final residual = 0.000455109, No Iterations 2
time step continuity errors : sum local = 3.54326e-05, global = -1.83237e-06, cumulative = 1.66938e-06
ExecutionTime = 80.37 s  ClockTime = 81 s

Time = 0.3

smoothSolver:  Solving for Ux, Initial residual = 0.00284528, Final residual = 0.000190363, No Iterations 3
smoothSolver:  Solving for Uy, Initial residual = 0.00198002, Final residual = 0.000124527, No Iterations 3
smoothSolver:  Solving for Uz, Initial residual = 0.00230724, Final residual = 0.000144486, No Iterations 3
GAMG:  Solving for p, Initial residual = 0.0051867, Final residual = 0.000436112, No Iterations 2
time step continuity errors : sum local = 3.40412e-05, global = -1.84067e-06, cumulative = -1.71285e-07
ExecutionTime = 81.36 s  ClockTime = 82 s

Time = 0.305

smoothSolver:  Solving for Ux, Initial residual = 0.00278295, Final residual = 0.000185634, No Iterations 3
smoothSolver:  Solving for Uy, Initial residual = 0.00191677, Final residual = 0.000119936, No Iterations 3
smoothSolver:  Solving for Uz, Initial residual = 0.00222811, Final residual = 0.000138433, No Iterations 3
GAMG:  Solving for p, Initial residual = 0.00505893, Final residual = 0.000418665, No Iterations 2
time step continuity errors : sum local = 3.27597e-05, global = -1.83639e-06, cumulative = -2.00768e-06
ExecutionTime = 82.45 s  ClockTime = 83 s

Time = 0.31

smoothSolver:  Solving for Ux, Initial residual = 0.00272036, Final residual = 0.000180865, No Iterations 3
smoothSolver:  Solving for Uy, Initial residual = 0.00185527, Final residual = 0.000115515, No Iterations 3
smoothSolver:  Solving for Uz, Initial residual = 0.00215045, Final residual = 0.000132584, No Iterations 3
GAMG:  Solving for p, Initial residual = 0.00493367, Final residual = 0.000403394, No Iterations 2
time step continuity errors : sum local = 3.1639e-05, global = -1.81789e-06, cumulative = -3.82556e-06
ExecutionTime = 83.42 s  ClockTime = 84 s

Time = 0.315

smoothSolver:  Solving for Ux, Initial residual = 0.00265685, Final residual = 0.000176101, No Iterations 3
smoothSolver:  Solving for Uy, Initial residual = 0.00179571, Final residual = 0.000111327, No Iterations 3
smoothSolver:  Solving for Uz, Initial residual = 0.00207473, Final residual = 0.000126995, No Iterations 3
GAMG:  Solving for p, Initial residual = 0.00481041, Final residual = 0.000390457, No Iterations 2
time step continuity errors : sum local = 3.06943e-05, global = -1.7869e-06, cumulative = -5.61247e-06
ExecutionTime = 84.41 s  ClockTime = 85 s

Time = 0.32

smoothSolver:  Solving for Ux, Initial residual = 0.00259216, Final residual = 0.000171377, No Iterations 3
smoothSolver:  Solving for Uy, Initial residual = 0.00173786, Final residual = 0.000107377, No Iterations 3
smoothSolver:  Solving for Uz, Initial residual = 0.00200153, Final residual = 0.000121669, No Iterations 3
GAMG:  Solving for p, Initial residual = 0.004692, Final residual = 0.000379521, No Iterations 2
time step continuity errors : sum local = 2.99002e-05, global = -1.74669e-06, cumulative = -7.35915e-06
ExecutionTime = 85.4 s  ClockTime = 86 s

Time = 0.325

smoothSolver:  Solving for Ux, Initial residual = 0.0025268, Final residual = 0.000166742, No Iterations 3
smoothSolver:  Solving for Uy, Initial residual = 0.00168194, Final residual = 0.000103635, No Iterations 3
smoothSolver:  Solving for Uz, Initial residual = 0.00193115, Final residual = 0.000116668, No Iterations 3
GAMG:  Solving for p, Initial residual = 0.00457728, Final residual = 0.000369825, No Iterations 2
time step continuity errors : sum local = 2.91979e-05, global = -1.70049e-06, cumulative = -9.05964e-06
ExecutionTime = 86.35 s  ClockTime = 87 s

Time = 0.33

smoothSolver:  Solving for Ux, Initial residual = 0.00246105, Final residual = 0.000162194, No Iterations 3
smoothSolver:  Solving for Uy, Initial residual = 0.00162808, Final residual = 0.000100137, No Iterations 3
smoothSolver:  Solving for Uz, Initial residual = 0.00186344, Final residual = 0.000112001, No Iterations 3
GAMG:  Solving for p, Initial residual = 0.00446601, Final residual = 0.000360938, No Iterations 2
time step continuity errors : sum local = 2.85542e-05, global = -1.65083e-06, cumulative = -1.07105e-05
ExecutionTime = 87.33 s  ClockTime = 88 s

Time = 0.335

smoothSolver:  Solving for Ux, Initial residual = 0.00239504, Final residual = 0.000157777, No Iterations 3
smoothSolver:  Solving for Uy, Initial residual = 0.00157663, Final residual = 9.68769e-05, No Iterations 3
smoothSolver:  Solving for Uz, Initial residual = 0.00179892, Final residual = 0.000107701, No Iterations 3
GAMG:  Solving for p, Initial residual = 0.00435981, Final residual = 0.000352564, No Iterations 2
time step continuity errors : sum local = 2.79461e-05, global = -1.59954e-06, cumulative = -1.231e-05
ExecutionTime = 88.32 s  ClockTime = 89 s

Time = 0.34

smoothSolver:  Solving for Ux, Initial residual = 0.00232965, Final residual = 0.000153512, No Iterations 3
smoothSolver:  Solving for Uy, Initial residual = 0.00152824, Final residual = 9.38742e-05, No Iterations 3
smoothSolver:  Solving for Uz, Initial residual = 0.00173803, Final residual = 0.000103784, No Iterations 3
GAMG:  Solving for p, Initial residual = 0.00426087, Final residual = 0.000344807, No Iterations 2
time step continuity errors : sum local = 2.73817e-05, global = -1.54726e-06, cumulative = -1.38573e-05
ExecutionTime = 89.29 s  ClockTime = 90 s

Time = 0.345

smoothSolver:  Solving for Ux, Initial residual = 0.00226574, Final residual = 0.000149412, No Iterations 3
smoothSolver:  Solving for Uy, Initial residual = 0.00148359, Final residual = 9.11482e-05, No Iterations 3
smoothSolver:  Solving for Uz, Initial residual = 0.00168153, Final residual = 0.000100313, No Iterations 3
GAMG:  Solving for p, Initial residual = 0.00417149, Final residual = 0.000337632, No Iterations 2
time step continuity errors : sum local = 2.68591e-05, global = -1.49436e-06, cumulative = -1.53516e-05
ExecutionTime = 90.26 s  ClockTime = 91 s

Time = 0.35

smoothSolver:  Solving for Ux, Initial residual = 0.00220396, Final residual = 0.000145521, No Iterations 3
smoothSolver:  Solving for Uy, Initial residual = 0.0014427, Final residual = 8.86849e-05, No Iterations 3
smoothSolver:  Solving for Uz, Initial residual = 0.00162937, Final residual = 9.72029e-05, No Iterations 3
GAMG:  Solving for p, Initial residual = 0.00408839, Final residual = 0.000331259, No Iterations 2
time step continuity errors : sum local = 2.63968e-05, global = -1.44193e-06, cumulative = -1.67936e-05
ExecutionTime = 91.36 s  ClockTime = 92 s

Time = 0.355

smoothSolver:  Solving for Ux, Initial residual = 0.00214417, Final residual = 0.000141837, No Iterations 3
smoothSolver:  Solving for Uy, Initial residual = 0.00140565, Final residual = 8.64769e-05, No Iterations 3
smoothSolver:  Solving for Uz, Initial residual = 0.00158127, Final residual = 9.44245e-05, No Iterations 3
GAMG:  Solving for p, Initial residual = 0.00401298, Final residual = 0.000325706, No Iterations 2
time step continuity errors : sum local = 2.5996e-05, global = -1.39145e-06, cumulative = -1.8185e-05
ExecutionTime = 92.33 s  ClockTime = 93 s

Time = 0.36

smoothSolver:  Solving for Ux, Initial residual = 0.00208679, Final residual = 0.00013833, No Iterations 3
smoothSolver:  Solving for Uy, Initial residual = 0.00137226, Final residual = 8.45111e-05, No Iterations 3
smoothSolver:  Solving for Uz, Initial residual = 0.00153686, Final residual = 9.19436e-05, No Iterations 3
GAMG:  Solving for p, Initial residual = 0.00394369, Final residual = 0.000320938, No Iterations 2
time step continuity errors : sum local = 2.56554e-05, global = -1.3441e-06, cumulative = -1.95291e-05
ExecutionTime = 93.3 s  ClockTime = 94 s

Time = 0.365

smoothSolver:  Solving for Ux, Initial residual = 0.00203184, Final residual = 0.000134978, No Iterations 3
smoothSolver:  Solving for Uy, Initial residual = 0.00134233, Final residual = 8.2781e-05, No Iterations 3
smoothSolver:  Solving for Uz, Initial residual = 0.00149636, Final residual = 8.97366e-05, No Iterations 3
GAMG:  Solving for p, Initial residual = 0.0038813, Final residual = 0.000316845, No Iterations 2
time step continuity errors : sum local = 2.53667e-05, global = -1.29016e-06, cumulative = -2.08193e-05
ExecutionTime = 94.3 s  ClockTime = 95 s

Time = 0.37

smoothSolver:  Solving for Ux, Initial residual = 0.00197939, Final residual = 0.00013178, No Iterations 3
smoothSolver:  Solving for Uy, Initial residual = 0.00131571, Final residual = 8.12498e-05, No Iterations 3
smoothSolver:  Solving for Uz, Initial residual = 0.00145959, Final residual = 8.78002e-05, No Iterations 3
GAMG:  Solving for p, Initial residual = 0.00382329, Final residual = 0.000313423, No Iterations 2
time step continuity errors : sum local = 2.51303e-05, global = -1.24144e-06, cumulative = -2.20607e-05
ExecutionTime = 95.3 s  ClockTime = 96 s

Time = 0.375

smoothSolver:  Solving for Ux, Initial residual = 0.00192954, Final residual = 0.000128695, No Iterations 3
smoothSolver:  Solving for Uy, Initial residual = 0.00129205, Final residual = 7.99136e-05, No Iterations 3
smoothSolver:  Solving for Uz, Initial residual = 0.00142568, Final residual = 8.60701e-05, No Iterations 3
GAMG:  Solving for p, Initial residual = 0.00376879, Final residual = 0.000310405, No Iterations 2
time step continuity errors : sum local = 2.49245e-05, global = -1.20017e-06, cumulative = -2.32609e-05
ExecutionTime = 96.23 s  ClockTime = 97 s

Time = 0.38

smoothSolver:  Solving for Ux, Initial residual = 0.00188196, Final residual = 0.000125741, No Iterations 3
smoothSolver:  Solving for Uy, Initial residual = 0.00127111, Final residual = 7.87779e-05, No Iterations 3
smoothSolver:  Solving for Uz, Initial residual = 0.00139428, Final residual = 8.45288e-05, No Iterations 3
GAMG:  Solving for p, Initial residual = 0.00371721, Final residual = 0.000307583, No Iterations 2
time step continuity errors : sum local = 2.47338e-05, global = -1.16531e-06, cumulative = -2.44262e-05
ExecutionTime = 97.17 s  ClockTime = 98 s

Time = 0.385

smoothSolver:  Solving for Ux, Initial residual = 0.00183689, Final residual = 0.000122944, No Iterations 3
smoothSolver:  Solving for Uy, Initial residual = 0.00125243, Final residual = 7.78469e-05, No Iterations 3
smoothSolver:  Solving for Uz, Initial residual = 0.00136576, Final residual = 8.3164e-05, No Iterations 3
GAMG:  Solving for p, Initial residual = 0.00366968, Final residual = 0.000304898, No Iterations 2
time step continuity errors : sum local = 2.45534e-05, global = -1.13543e-06, cumulative = -2.55616e-05
ExecutionTime = 98.06 s  ClockTime = 98 s

Time = 0.39

smoothSolver:  Solving for Ux, Initial residual = 0.00179392, Final residual = 0.000120293, No Iterations 3
smoothSolver:  Solving for Uy, Initial residual = 0.00123572, Final residual = 7.70795e-05, No Iterations 3
smoothSolver:  Solving for Uz, Initial residual = 0.0013397, Final residual = 8.19616e-05, No Iterations 3
GAMG:  Solving for p, Initial residual = 0.00362392, Final residual = 0.000302383, No Iterations 2
time step continuity errors : sum local = 2.43856e-05, global = -1.10899e-06, cumulative = -2.66706e-05
ExecutionTime = 98.98 s  ClockTime = 99 s

Time = 0.395

smoothSolver:  Solving for Ux, Initial residual = 0.00175311, Final residual = 0.000117773, No Iterations 3
smoothSolver:  Solving for Uy, Initial residual = 0.00122073, Final residual = 7.64464e-05, No Iterations 3
smoothSolver:  Solving for Uz, Initial residual = 0.00131574, Final residual = 8.09021e-05, No Iterations 3
GAMG:  Solving for p, Initial residual = 0.00357944, Final residual = 0.000300003, No Iterations 2
time step continuity errors : sum local = 2.42281e-05, global = -1.08443e-06, cumulative = -2.7755e-05
ExecutionTime = 99.94 s  ClockTime = 100 s

Time = 0.4

smoothSolver:  Solving for Ux, Initial residual = 0.0017142, Final residual = 0.000115395, No Iterations 3
smoothSolver:  Solving for Uy, Initial residual = 0.00120723, Final residual = 7.59078e-05, No Iterations 3
smoothSolver:  Solving for Uz, Initial residual = 0.00129387, Final residual = 7.99694e-05, No Iterations 3
GAMG:  Solving for p, Initial residual = 0.00353681, Final residual = 0.000297676, No Iterations 2
time step continuity errors : sum local = 2.40742e-05, global = -1.06066e-06, cumulative = -2.88157e-05
ExecutionTime = 100.91 s  ClockTime = 101 s

Time = 0.405

smoothSolver:  Solving for Ux, Initial residual = 0.0016772, Final residual = 0.000113158, No Iterations 3
smoothSolver:  Solving for Uy, Initial residual = 0.00119524, Final residual = 7.54699e-05, No Iterations 3
smoothSolver:  Solving for Uz, Initial residual = 0.00127392, Final residual = 7.91238e-05, No Iterations 3
GAMG:  Solving for p, Initial residual = 0.00349652, Final residual = 0.000295401, No Iterations 2
time step continuity errors : sum local = 2.39237e-05, global = -1.03709e-06, cumulative = -2.98528e-05
ExecutionTime = 101.88 s  ClockTime = 102 s

Time = 0.41

smoothSolver:  Solving for Ux, Initial residual = 0.00164237, Final residual = 0.000111046, No Iterations 3
smoothSolver:  Solving for Uy, Initial residual = 0.00118453, Final residual = 7.512e-05, No Iterations 3
smoothSolver:  Solving for Uz, Initial residual = 0.00125565, Final residual = 7.83425e-05, No Iterations 3
GAMG:  Solving for p, Initial residual = 0.00345828, Final residual = 0.000293269, No Iterations 2
time step continuity errors : sum local = 2.37843e-05, global = -1.01303e-06, cumulative = -3.08658e-05
ExecutionTime = 102.86 s  ClockTime = 103 s

Time = 0.415

smoothSolver:  Solving for Ux, Initial residual = 0.0016096, Final residual = 0.000109061, No Iterations 3
smoothSolver:  Solving for Uy, Initial residual = 0.00117505, Final residual = 7.48595e-05, No Iterations 3
smoothSolver:  Solving for Uz, Initial residual = 0.00123878, Final residual = 7.75927e-05, No Iterations 3
GAMG:  Solving for p, Initial residual = 0.0034221, Final residual = 0.000291288, No Iterations 2
time step continuity errors : sum local = 2.36564e-05, global = -9.88316e-07, cumulative = -3.18542e-05
ExecutionTime = 103.84 s  ClockTime = 104 s

Time = 0.42

smoothSolver:  Solving for Ux, Initial residual = 0.00157941, Final residual = 0.000107214, No Iterations 3
smoothSolver:  Solving for Uy, Initial residual = 0.00116701, Final residual = 7.46808e-05, No Iterations 3
smoothSolver:  Solving for Uz, Initial residual = 0.00122332, Final residual = 7.68598e-05, No Iterations 3
GAMG:  Solving for p, Initial residual = 0.00338778, Final residual = 0.000289505, No Iterations 2
time step continuity errors : sum local = 2.35437e-05, global = -9.62903e-07, cumulative = -3.28171e-05
ExecutionTime = 104.8 s  ClockTime = 105 s

Time = 0.425

smoothSolver:  Solving for Ux, Initial residual = 0.00155227, Final residual = 0.000105507, No Iterations 3
smoothSolver:  Solving for Uy, Initial residual = 0.00116042, Final residual = 7.46057e-05, No Iterations 3
smoothSolver:  Solving for Uz, Initial residual = 0.00120887, Final residual = 7.61304e-05, No Iterations 3
GAMG:  Solving for p, Initial residual = 0.00335382, Final residual = 0.000287914, No Iterations 2
time step continuity errors : sum local = 2.3446e-05, global = -9.3689e-07, cumulative = -3.37539e-05
ExecutionTime = 105.79 s  ClockTime = 106 s

Time = 0.43

smoothSolver:  Solving for Ux, Initial residual = 0.00152825, Final residual = 0.000104004, No Iterations 3
smoothSolver:  Solving for Uy, Initial residual = 0.00115499, Final residual = 7.45882e-05, No Iterations 3
smoothSolver:  Solving for Uz, Initial residual = 0.00119534, Final residual = 7.54e-05, No Iterations 3
GAMG:  Solving for p, Initial residual = 0.00331992, Final residual = 0.000286525, No Iterations 2
time step continuity errors : sum local = 2.33646e-05, global = -9.10484e-07, cumulative = -3.46644e-05
ExecutionTime = 106.73 s  ClockTime = 107 s

Time = 0.435

smoothSolver:  Solving for Ux, Initial residual = 0.00150689, Final residual = 0.000102669, No Iterations 3
smoothSolver:  Solving for Uy, Initial residual = 0.00115036, Final residual = 7.45884e-05, No Iterations 3
smoothSolver:  Solving for Uz, Initial residual = 0.0011825, Final residual = 7.46659e-05, No Iterations 3
GAMG:  Solving for p, Initial residual = 0.00328704, Final residual = 0.000285322, No Iterations 2
time step continuity errors : sum local = 2.32968e-05, global = -8.84211e-07, cumulative = -3.55486e-05
ExecutionTime = 107.69 s  ClockTime = 108 s

Time = 0.44

smoothSolver:  Solving for Ux, Initial residual = 0.00148785, Final residual = 0.000101476, No Iterations 3
smoothSolver:  Solving for Uy, Initial residual = 0.0011461, Final residual = 7.45823e-05, No Iterations 3
smoothSolver:  Solving for Uz, Initial residual = 0.00117021, Final residual = 7.3931e-05, No Iterations 3
GAMG:  Solving for p, Initial residual = 0.00325494, Final residual = 0.000284269, No Iterations 2
time step continuity errors : sum local = 2.32411e-05, global = -8.58135e-07, cumulative = -3.64068e-05
ExecutionTime = 108.68 s  ClockTime = 109 s

Time = 0.445

smoothSolver:  Solving for Ux, Initial residual = 0.00147061, Final residual = 0.000100398, No Iterations 3
smoothSolver:  Solving for Uy, Initial residual = 0.00114223, Final residual = 7.45575e-05, No Iterations 3
smoothSolver:  Solving for Uz, Initial residual = 0.00115825, Final residual = 7.31854e-05, No Iterations 3
GAMG:  Solving for p, Initial residual = 0.00322207, Final residual = 0.000283318, No Iterations 2
time step continuity errors : sum local = 2.31932e-05, global = -8.32179e-07, cumulative = -3.7239e-05
ExecutionTime = 109.63 s  ClockTime = 110 s

Time = 0.45

smoothSolver:  Solving for Ux, Initial residual = 0.00145479, Final residual = 9.94294e-05, No Iterations 3
smoothSolver:  Solving for Uy, Initial residual = 0.00113847, Final residual = 7.44912e-05, No Iterations 3
smoothSolver:  Solving for Uz, Initial residual = 0.00114654, Final residual = 7.242e-05, No Iterations 3
GAMG:  Solving for p, Initial residual = 0.00319015, Final residual = 0.000282404, No Iterations 2
time step continuity errors : sum local = 2.3148e-05, global = -8.06404e-07, cumulative = -3.80454e-05
ExecutionTime = 110.54 s  ClockTime = 111 s

Time = 0.455

smoothSolver:  Solving for Ux, Initial residual = 0.00144019, Final residual = 9.85516e-05, No Iterations 3
smoothSolver:  Solving for Uy, Initial residual = 0.00113467, Final residual = 7.43749e-05, No Iterations 3
smoothSolver:  Solving for Uz, Initial residual = 0.00113512, Final residual = 7.16561e-05, No Iterations 3
GAMG:  Solving for p, Initial residual = 0.00315851, Final residual = 0.000281517, No Iterations 2
time step continuity errors : sum local = 2.31048e-05, global = -7.80901e-07, cumulative = -3.88263e-05
ExecutionTime = 111.46 s  ClockTime = 112 s

Time = 0.46

smoothSolver:  Solving for Ux, Initial residual = 0.00142667, Final residual = 9.7763e-05, No Iterations 3
smoothSolver:  Solving for Uy, Initial residual = 0.00113082, Final residual = 7.42001e-05, No Iterations 3
smoothSolver:  Solving for Uz, Initial residual = 0.00112397, Final residual = 7.09021e-05, No Iterations 3
GAMG:  Solving for p, Initial residual = 0.0031266, Final residual = 0.00028061, No Iterations 2
time step continuity errors : sum local = 2.30593e-05, global = -7.55646e-07, cumulative = -3.95819e-05
ExecutionTime = 112.36 s  ClockTime = 113 s

Time = 0.465

smoothSolver:  Solving for Ux, Initial residual = 0.00141423, Final residual = 9.70592e-05, No Iterations 3
smoothSolver:  Solving for Uy, Initial residual = 0.0011267, Final residual = 7.39633e-05, No Iterations 3
smoothSolver:  Solving for Uz, Initial residual = 0.00111326, Final residual = 7.01977e-05, No Iterations 3
GAMG:  Solving for p, Initial residual = 0.00309505, Final residual = 0.000279803, No Iterations 2
time step continuity errors : sum local = 2.30215e-05, global = -7.30814e-07, cumulative = -4.03127e-05
ExecutionTime = 113.27 s  ClockTime = 114 s

Time = 0.47

smoothSolver:  Solving for Ux, Initial residual = 0.00140282, Final residual = 9.64626e-05, No Iterations 3
smoothSolver:  Solving for Uy, Initial residual = 0.0011222, Final residual = 7.36712e-05, No Iterations 3
smoothSolver:  Solving for Uz, Initial residual = 0.00110294, Final residual = 6.95437e-05, No Iterations 3
GAMG:  Solving for p, Initial residual = 0.00306342, Final residual = 0.000279141, No Iterations 2
time step continuity errors : sum local = 2.29956e-05, global = -7.06621e-07, cumulative = -4.10193e-05
ExecutionTime = 114.2 s  ClockTime = 115 s

Time = 0.475

smoothSolver:  Solving for Ux, Initial residual = 0.00139269, Final residual = 9.59502e-05, No Iterations 3
smoothSolver:  Solving for Uy, Initial residual = 0.00111731, Final residual = 7.33443e-05, No Iterations 3
smoothSolver:  Solving for Uz, Initial residual = 0.00109289, Final residual = 6.89379e-05, No Iterations 3
GAMG:  Solving for p, Initial residual = 0.00303349, Final residual = 0.000278606, No Iterations 2
time step continuity errors : sum local = 2.298e-05, global = -6.83249e-07, cumulative = -4.17026e-05
ExecutionTime = 115.1 s  ClockTime = 115 s

Time = 0.48

smoothSolver:  Solving for Ux, Initial residual = 0.00138388, Final residual = 9.55081e-05, No Iterations 3
smoothSolver:  Solving for Uy, Initial residual = 0.00111201, Final residual = 7.29646e-05, No Iterations 3
smoothSolver:  Solving for Uz, Initial residual = 0.00108331, Final residual = 6.83373e-05, No Iterations 3
GAMG:  Solving for p, Initial residual = 0.00300546, Final residual = 0.000278227, No Iterations 2
time step continuity errors : sum local = 2.29773e-05, global = -6.60825e-07, cumulative = -4.23634e-05
ExecutionTime = 115.99 s  ClockTime = 116 s

Time = 0.485

smoothSolver:  Solving for Ux, Initial residual = 0.00137648, Final residual = 9.51167e-05, No Iterations 3
smoothSolver:  Solving for Uy, Initial residual = 0.0011065, Final residual = 7.25352e-05, No Iterations 3
smoothSolver:  Solving for Uz, Initial residual = 0.00107397, Final residual = 6.77236e-05, No Iterations 3
GAMG:  Solving for p, Initial residual = 0.00298051, Final residual = 0.000277998, No Iterations 2
time step continuity errors : sum local = 2.29867e-05, global = -6.39325e-07, cumulative = -4.30027e-05
ExecutionTime = 116.94 s  ClockTime = 117 s

Time = 0.49

smoothSolver:  Solving for Ux, Initial residual = 0.00137005, Final residual = 9.47534e-05, No Iterations 3
smoothSolver:  Solving for Uy, Initial residual = 0.00110047, Final residual = 7.20745e-05, No Iterations 3
smoothSolver:  Solving for Uz, Initial residual = 0.00106479, Final residual = 6.7086e-05, No Iterations 3
GAMG:  Solving for p, Initial residual = 0.00295887, Final residual = 0.000277807, No Iterations 2
time step continuity errors : sum local = 2.29989e-05, global = -6.18671e-07, cumulative = -4.36214e-05
ExecutionTime = 117.85 s  ClockTime = 118 s

Time = 0.495

smoothSolver:  Solving for Ux, Initial residual = 0.00136433, Final residual = 9.43939e-05, No Iterations 3
smoothSolver:  Solving for Uy, Initial residual = 0.00109389, Final residual = 7.15969e-05, No Iterations 3
smoothSolver:  Solving for Uz, Initial residual = 0.00105575, Final residual = 6.6433e-05, No Iterations 3
GAMG:  Solving for p, Initial residual = 0.00294038, Final residual = 0.000277599, No Iterations 2
time step continuity errors : sum local = 2.30094e-05, global = -5.98684e-07, cumulative = -4.42201e-05
ExecutionTime = 118.77 s  ClockTime = 119 s

Time = 0.5

smoothSolver:  Solving for Ux, Initial residual = 0.00135884, Final residual = 9.40223e-05, No Iterations 3
smoothSolver:  Solving for Uy, Initial residual = 0.00108687, Final residual = 7.10833e-05, No Iterations 3
smoothSolver:  Solving for Uz, Initial residual = 0.00104683, Final residual = 6.57588e-05, No Iterations 3
GAMG:  Solving for p, Initial residual = 0.00292565, Final residual = 0.000277404, No Iterations 2
time step continuity errors : sum local = 2.3021e-05, global = -5.79019e-07, cumulative = -4.47991e-05
ExecutionTime = 120.66 s  ClockTime = 121 s

Time = 0.505

smoothSolver:  Solving for Ux, Initial residual = 0.00135322, Final residual = 9.36227e-05, No Iterations 3
smoothSolver:  Solving for Uy, Initial residual = 0.00107949, Final residual = 7.05362e-05, No Iterations 3
smoothSolver:  Solving for Uz, Initial residual = 0.00103781, Final residual = 6.5067e-05, No Iterations 3
GAMG:  Solving for p, Initial residual = 0.00291345, Final residual = 0.000277128, No Iterations 2
time step continuity errors : sum local = 2.30256e-05, global = -5.5916e-07, cumulative = -4.53583e-05
ExecutionTime = 121.68 s  ClockTime = 122 s

Time = 0.51

smoothSolver:  Solving for Ux, Initial residual = 0.00134735, Final residual = 9.31671e-05, No Iterations 3
smoothSolver:  Solving for Uy, Initial residual = 0.00107181, Final residual = 6.99836e-05, No Iterations 3
smoothSolver:  Solving for Uz, Initial residual = 0.00102866, Final residual = 6.43638e-05, No Iterations 3
GAMG:  Solving for p, Initial residual = 0.00290314, Final residual = 0.00027662, No Iterations 2
time step continuity errors : sum local = 2.30108e-05, global = -5.38702e-07, cumulative = -4.5897e-05
ExecutionTime = 122.61 s  ClockTime = 123 s

Time = 0.515

smoothSolver:  Solving for Ux, Initial residual = 0.00134087, Final residual = 9.26288e-05, No Iterations 3
smoothSolver:  Solving for Uy, Initial residual = 0.00106384, Final residual = 6.94054e-05, No Iterations 3
smoothSolver:  Solving for Uz, Initial residual = 0.00101951, Final residual = 6.36714e-05, No Iterations 3
GAMG:  Solving for p, Initial residual = 0.00289535, Final residual = 0.0002759, No Iterations 2
time step continuity errors : sum local = 2.29783e-05, global = -5.17368e-07, cumulative = -4.64143e-05
ExecutionTime = 123.53 s  ClockTime = 124 s

Time = 0.52

smoothSolver:  Solving for Ux, Initial residual = 0.00133388, Final residual = 9.20058e-05, No Iterations 3
smoothSolver:  Solving for Uy, Initial residual = 0.0010557, Final residual = 6.88195e-05, No Iterations 3
smoothSolver:  Solving for Uz, Initial residual = 0.0010105, Final residual = 6.29809e-05, No Iterations 3
GAMG:  Solving for p, Initial residual = 0.00288752, Final residual = 0.000274886, No Iterations 2
time step continuity errors : sum local = 2.29213e-05, global = -4.94897e-07, cumulative = -4.69092e-05
ExecutionTime = 124.48 s  ClockTime = 125 s

Time = 0.525

smoothSolver:  Solving for Ux, Initial residual = 0.00132602, Final residual = 9.13059e-05, No Iterations 3
smoothSolver:  Solving for Uy, Initial residual = 0.00104764, Final residual = 6.82222e-05, No Iterations 3
smoothSolver:  Solving for Uz, Initial residual = 0.00100168, Final residual = 6.22864e-05, No Iterations 3
GAMG:  Solving for p, Initial residual = 0.0028804, Final residual = 0.000273608, No Iterations 2
time step continuity errors : sum local = 2.2842e-05, global = -4.71028e-07, cumulative = -4.73803e-05
ExecutionTime = 125.41 s  ClockTime = 126 s

Time = 0.53

smoothSolver:  Solving for Ux, Initial residual = 0.00131717, Final residual = 9.05305e-05, No Iterations 3
smoothSolver:  Solving for Uy, Initial residual = 0.00103976, Final residual = 6.76232e-05, No Iterations 3
smoothSolver:  Solving for Uz, Initial residual = 0.000992994, Final residual = 6.15981e-05, No Iterations 3
GAMG:  Solving for p, Initial residual = 0.00287372, Final residual = 0.000272069, No Iterations 2
time step continuity errors : sum local = 2.27406e-05, global = -4.45554e-07, cumulative = -4.78258e-05
ExecutionTime = 126.43 s  ClockTime = 127 s

Time = 0.535

smoothSolver:  Solving for Ux, Initial residual = 0.00130739, Final residual = 8.96847e-05, No Iterations 3
smoothSolver:  Solving for Uy, Initial residual = 0.00103223, Final residual = 6.7014e-05, No Iterations 3
smoothSolver:  Solving for Uz, Initial residual = 0.000984406, Final residual = 6.09318e-05, No Iterations 3
GAMG:  Solving for p, Initial residual = 0.00286658, Final residual = 0.000270383, No Iterations 2
time step continuity errors : sum local = 2.26261e-05, global = -4.1842e-07, cumulative = -4.82442e-05
ExecutionTime = 127.49 s  ClockTime = 128 s

Time = 0.54

smoothSolver:  Solving for Ux, Initial residual = 0.00129676, Final residual = 8.87813e-05, No Iterations 3
smoothSolver:  Solving for Uy, Initial residual = 0.00102508, Final residual = 6.63967e-05, No Iterations 3
smoothSolver:  Solving for Uz, Initial residual = 0.000975783, Final residual = 6.02942e-05, No Iterations 3
GAMG:  Solving for p, Initial residual = 0.00285872, Final residual = 0.000268528, No Iterations 2
time step continuity errors : sum local = 2.24972e-05, global = -3.89634e-07, cumulative = -4.86339e-05
ExecutionTime = 128.49 s  ClockTime = 129 s

Time = 0.545

smoothSolver:  Solving for Ux, Initial residual = 0.00128527, Final residual = 8.78346e-05, No Iterations 3
smoothSolver:  Solving for Uy, Initial residual = 0.00101824, Final residual = 6.57644e-05, No Iterations 3
smoothSolver:  Solving for Uz, Initial residual = 0.000967455, Final residual = 5.96612e-05, No Iterations 3
GAMG:  Solving for p, Initial residual = 0.00284936, Final residual = 0.000266688, No Iterations 2
time step continuity errors : sum local = 2.2369e-05, global = -3.59156e-07, cumulative = -4.8993e-05
ExecutionTime = 129.52 s  ClockTime = 130 s

Time = 0.55

smoothSolver:  Solving for Ux, Initial residual = 0.00127312, Final residual = 8.68539e-05, No Iterations 3
smoothSolver:  Solving for Uy, Initial residual = 0.00101162, Final residual = 6.51149e-05, No Iterations 3
smoothSolver:  Solving for Uz, Initial residual = 0.00095926, Final residual = 5.90354e-05, No Iterations 3
GAMG:  Solving for p, Initial residual = 0.00283936, Final residual = 0.000264823, No Iterations 2
time step continuity errors : sum local = 2.22378e-05, global = -3.2707e-07, cumulative = -4.93201e-05
ExecutionTime = 130.51 s  ClockTime = 131 s

Time = 0.555

smoothSolver:  Solving for Ux, Initial residual = 0.00126063, Final residual = 8.58616e-05, No Iterations 3
smoothSolver:  Solving for Uy, Initial residual = 0.0010052, Final residual = 6.44577e-05, No Iterations 3
smoothSolver:  Solving for Uz, Initial residual = 0.000951006, Final residual = 5.84176e-05, No Iterations 3
GAMG:  Solving for p, Initial residual = 0.00282809, Final residual = 0.000262892, No Iterations 2
time step continuity errors : sum local = 2.21003e-05, global = -2.93549e-07, cumulative = -4.96136e-05
ExecutionTime = 131.51 s  ClockTime = 132 s

Time = 0.56

smoothSolver:  Solving for Ux, Initial residual = 0.00124812, Final residual = 8.48742e-05, No Iterations 3
smoothSolver:  Solving for Uy, Initial residual = 0.000998833, Final residual = 6.37873e-05, No Iterations 3
smoothSolver:  Solving for Uz, Initial residual = 0.000942607, Final residual = 5.78087e-05, No Iterations 3
GAMG:  Solving for p, Initial residual = 0.00281531, Final residual = 0.000260859, No Iterations 2
time step continuity errors : sum local = 2.19539e-05, global = -2.5881e-07, cumulative = -4.98725e-05
ExecutionTime = 132.52 s  ClockTime = 133 s

Time = 0.565

smoothSolver:  Solving for Ux, Initial residual = 0.00123551, Final residual = 8.39037e-05, No Iterations 3
smoothSolver:  Solving for Uy, Initial residual = 0.000992426, Final residual = 6.31099e-05, No Iterations 3
smoothSolver:  Solving for Uz, Initial residual = 0.000934063, Final residual = 5.72231e-05, No Iterations 3
GAMG:  Solving for p, Initial residual = 0.00279995, Final residual = 0.000258751, No Iterations 2
time step continuity errors : sum local = 2.18005e-05, global = -2.23078e-07, cumulative = -5.00955e-05
ExecutionTime = 133.55 s  ClockTime = 134 s

Time = 0.57

smoothSolver:  Solving for Ux, Initial residual = 0.00122289, Final residual = 8.29554e-05, No Iterations 3
smoothSolver:  Solving for Uy, Initial residual = 0.000985925, Final residual = 6.24294e-05, No Iterations 3
smoothSolver:  Solving for Uz, Initial residual = 0.000925368, Final residual = 5.66594e-05, No Iterations 3
GAMG:  Solving for p, Initial residual = 0.00278351, Final residual = 0.00025654, No Iterations 2
time step continuity errors : sum local = 2.16378e-05, global = -1.8661e-07, cumulative = -5.02821e-05
ExecutionTime = 134.56 s  ClockTime = 135 s

Time = 0.575

smoothSolver:  Solving for Ux, Initial residual = 0.00121008, Final residual = 8.2019e-05, No Iterations 3
smoothSolver:  Solving for Uy, Initial residual = 0.000979131, Final residual = 6.1763e-05, No Iterations 3
smoothSolver:  Solving for Uz, Initial residual = 0.000916552, Final residual = 5.61148e-05, No Iterations 3
GAMG:  Solving for p, Initial residual = 0.0027666, Final residual = 0.000254191, No Iterations 2
time step continuity errors : sum local = 2.14627e-05, global = -1.49836e-07, cumulative = -5.0432e-05
ExecutionTime = 135.5 s  ClockTime = 136 s

Time = 0.58

smoothSolver:  Solving for Ux, Initial residual = 0.00119707, Final residual = 8.1091e-05, No Iterations 3
smoothSolver:  Solving for Uy, Initial residual = 0.000971983, Final residual = 6.11155e-05, No Iterations 3
smoothSolver:  Solving for Uz, Initial residual = 0.000907555, Final residual = 5.55839e-05, No Iterations 3
GAMG:  Solving for p, Initial residual = 0.00274752, Final residual = 0.00025171, No Iterations 2
time step continuity errors : sum local = 2.12757e-05, global = -1.13411e-07, cumulative = -5.05454e-05
ExecutionTime = 136.44 s  ClockTime = 137 s

Time = 0.585

smoothSolver:  Solving for Ux, Initial residual = 0.00118377, Final residual = 8.01641e-05, No Iterations 3
smoothSolver:  Solving for Uy, Initial residual = 0.000964632, Final residual = 6.04673e-05, No Iterations 3
smoothSolver:  Solving for Uz, Initial residual = 0.000898423, Final residual = 5.50687e-05, No Iterations 3
GAMG:  Solving for p, Initial residual = 0.00272631, Final residual = 0.000249138, No Iterations 2
time step continuity errors : sum local = 2.10803e-05, global = -7.8276e-08, cumulative = -5.06237e-05
ExecutionTime = 137.39 s  ClockTime = 138 s

Time = 0.59

smoothSolver:  Solving for Ux, Initial residual = 0.0011704, Final residual = 7.92286e-05, No Iterations 3
smoothSolver:  Solving for Uy, Initial residual = 0.000956795, Final residual = 5.98224e-05, No Iterations 3
smoothSolver:  Solving for Uz, Initial residual = 0.000889338, Final residual = 5.45735e-05, No Iterations 3
GAMG:  Solving for p, Initial residual = 0.00270286, Final residual = 0.00024648, No Iterations 2
time step continuity errors : sum local = 2.08769e-05, global = -4.51274e-08, cumulative = -5.06688e-05
ExecutionTime = 138.33 s  ClockTime = 139 s

Time = 0.595

smoothSolver:  Solving for Ux, Initial residual = 0.00115684, Final residual = 7.82773e-05, No Iterations 3
smoothSolver:  Solving for Uy, Initial residual = 0.000948474, Final residual = 5.91788e-05, No Iterations 3
smoothSolver:  Solving for Uz, Initial residual = 0.000880262, Final residual = 5.40876e-05, No Iterations 3
GAMG:  Solving for p, Initial residual = 0.00267728, Final residual = 0.000243836, No Iterations 2
time step continuity errors : sum local = 2.0674e-05, global = -3.31281e-08, cumulative = -5.07019e-05
ExecutionTime = 139.29 s  ClockTime = 140 s

Time = 0.6

smoothSolver:  Solving for Ux, Initial residual = 0.00114308, Final residual = 7.72994e-05, No Iterations 3
smoothSolver:  Solving for Uy, Initial residual = 0.000939834, Final residual = 5.85395e-05, No Iterations 3
smoothSolver:  Solving for Uz, Initial residual = 0.000871108, Final residual = 5.36054e-05, No Iterations 3
GAMG:  Solving for p, Initial residual = 0.00265026, Final residual = 0.000241092, No Iterations 2
time step continuity errors : sum local = 2.04616e-05, global = -2.78221e-08, cumulative = -5.07297e-05
ExecutionTime = 140.31 s  ClockTime = 141 s

Time = 0.605

smoothSolver:  Solving for Ux, Initial residual = 0.00112932, Final residual = 7.63081e-05, No Iterations 3
smoothSolver:  Solving for Uy, Initial residual = 0.000930815, Final residual = 5.78973e-05, No Iterations 3
smoothSolver:  Solving for Uz, Initial residual = 0.000862047, Final residual = 5.31374e-05, No Iterations 3
GAMG:  Solving for p, Initial residual = 0.00262077, Final residual = 0.000238271, No Iterations 2
time step continuity errors : sum local = 2.02422e-05, global = -2.43481e-08, cumulative = -5.07541e-05
ExecutionTime = 141.21 s  ClockTime = 142 s

Time = 0.61

smoothSolver:  Solving for Ux, Initial residual = 0.00111562, Final residual = 7.53027e-05, No Iterations 3
smoothSolver:  Solving for Uy, Initial residual = 0.000921342, Final residual = 5.72473e-05, No Iterations 3
smoothSolver:  Solving for Uz, Initial residual = 0.00085304, Final residual = 5.26903e-05, No Iterations 3
GAMG:  Solving for p, Initial residual = 0.00259003, Final residual = 0.000235418, No Iterations 2
time step continuity errors : sum local = 2.00194e-05, global = -2.19587e-08, cumulative = -5.07761e-05
ExecutionTime = 142.15 s  ClockTime = 143 s

Time = 0.615

smoothSolver:  Solving for Ux, Initial residual = 0.00110172, Final residual = 7.42799e-05, No Iterations 3
smoothSolver:  Solving for Uy, Initial residual = 0.00091139, Final residual = 5.65942e-05, No Iterations 3
smoothSolver:  Solving for Uz, Initial residual = 0.000844176, Final residual = 5.22453e-05, No Iterations 3
GAMG:  Solving for p, Initial residual = 0.00255821, Final residual = 0.000232501, No Iterations 2
time step continuity errors : sum local = 1.97906e-05, global = -1.98333e-08, cumulative = -5.07959e-05
ExecutionTime = 143.07 s  ClockTime = 144 s

Time = 0.62

smoothSolver:  Solving for Ux, Initial residual = 0.00108767, Final residual = 7.32295e-05, No Iterations 3
smoothSolver:  Solving for Uy, Initial residual = 0.000901062, Final residual = 5.59417e-05, No Iterations 3
smoothSolver:  Solving for Uz, Initial residual = 0.000835512, Final residual = 5.17969e-05, No Iterations 3
GAMG:  Solving for p, Initial residual = 0.00252495, Final residual = 0.000229477, No Iterations 2
time step continuity errors : sum local = 1.95517e-05, global = -1.7339e-08, cumulative = -5.08132e-05
ExecutionTime = 143.99 s  ClockTime = 145 s

Time = 0.625

smoothSolver:  Solving for Ux, Initial residual = 0.00107345, Final residual = 7.2155e-05, No Iterations 3
smoothSolver:  Solving for Uy, Initial residual = 0.000890265, Final residual = 5.52707e-05, No Iterations 3
smoothSolver:  Solving for Uz, Initial residual = 0.000826926, Final residual = 5.13501e-05, No Iterations 3
GAMG:  Solving for p, Initial residual = 0.00249035, Final residual = 0.000226303, No Iterations 2
time step continuity errors : sum local = 1.92993e-05, global = -1.37109e-08, cumulative = -5.08269e-05
ExecutionTime = 144.92 s  ClockTime = 146 s

Time = 0.63

smoothSolver:  Solving for Ux, Initial residual = 0.00105913, Final residual = 7.1066e-05, No Iterations 3
smoothSolver:  Solving for Uy, Initial residual = 0.000879172, Final residual = 5.45888e-05, No Iterations 3
smoothSolver:  Solving for Uz, Initial residual = 0.000818459, Final residual = 5.09036e-05, No Iterations 3
GAMG:  Solving for p, Initial residual = 0.00245428, Final residual = 0.000222938, No Iterations 2
time step continuity errors : sum local = 1.90298e-05, global = -8.39439e-09, cumulative = -5.08353e-05
ExecutionTime = 145.87 s  ClockTime = 147 s

Time = 0.635

smoothSolver:  Solving for Ux, Initial residual = 0.00104482, Final residual = 6.99697e-05, No Iterations 3
smoothSolver:  Solving for Uy, Initial residual = 0.00086761, Final residual = 5.38828e-05, No Iterations 3
smoothSolver:  Solving for Uz, Initial residual = 0.00081004, Final residual = 5.04624e-05, No Iterations 3
GAMG:  Solving for p, Initial residual = 0.00241715, Final residual = 0.000219366, No Iterations 2
time step continuity errors : sum local = 1.87419e-05, global = 1.76649e-09, cumulative = -5.08336e-05
ExecutionTime = 146.81 s  ClockTime = 148 s

Time = 0.64

smoothSolver:  Solving for Ux, Initial residual = 0.00103049, Final residual = 6.88768e-05, No Iterations 3
smoothSolver:  Solving for Uy, Initial residual = 0.000855546, Final residual = 5.31444e-05, No Iterations 3
smoothSolver:  Solving for Uz, Initial residual = 0.000801713, Final residual = 5.00196e-05, No Iterations 3
GAMG:  Solving for p, Initial residual = 0.00237877, Final residual = 0.000215618, No Iterations 2
time step continuity errors : sum local = 1.84382e-05, global = 1.52486e-08, cumulative = -5.08183e-05
ExecutionTime = 147.77 s  ClockTime = 149 s

Time = 0.645

smoothSolver:  Solving for Ux, Initial residual = 0.0010163, Final residual = 6.77916e-05, No Iterations 3
smoothSolver:  Solving for Uy, Initial residual = 0.000842978, Final residual = 5.23795e-05, No Iterations 3
smoothSolver:  Solving for Uz, Initial residual = 0.000793407, Final residual = 4.95587e-05, No Iterations 3
GAMG:  Solving for p, Initial residual = 0.00233926, Final residual = 0.000211619, No Iterations 2
time step continuity errors : sum local = 1.81123e-05, global = 3.05935e-08, cumulative = -5.07877e-05
ExecutionTime = 148.76 s  ClockTime = 150 s

Time = 0.65

smoothSolver:  Solving for Ux, Initial residual = 0.00100238, Final residual = 6.67351e-05, No Iterations 3
smoothSolver:  Solving for Uy, Initial residual = 0.000829937, Final residual = 5.15969e-05, No Iterations 3
smoothSolver:  Solving for Uz, Initial residual = 0.000784983, Final residual = 4.90774e-05, No Iterations 3
GAMG:  Solving for p, Initial residual = 0.00229855, Final residual = 0.000207365, No Iterations 2
time step continuity errors : sum local = 1.77637e-05, global = 4.72997e-08, cumulative = -5.07404e-05
ExecutionTime = 149.75 s  ClockTime = 150 s

Time = 0.655

smoothSolver:  Solving for Ux, Initial residual = 0.000988749, Final residual = 6.57194e-05, No Iterations 3
smoothSolver:  Solving for Uy, Initial residual = 0.000816344, Final residual = 5.07823e-05, No Iterations 3
smoothSolver:  Solving for Uz, Initial residual = 0.000776311, Final residual = 4.85713e-05, No Iterations 3
GAMG:  Solving for p, Initial residual = 0.00225717, Final residual = 0.000202923, No Iterations 2
time step continuity errors : sum local = 1.73981e-05, global = 6.46917e-08, cumulative = -5.06757e-05
ExecutionTime = 150.76 s  ClockTime = 152 s

Time = 0.66

smoothSolver:  Solving for Ux, Initial residual = 0.000975436, Final residual = 6.475e-05, No Iterations 3
smoothSolver:  Solving for Uy, Initial residual = 0.000802419, Final residual = 4.99437e-05, No Iterations 3
smoothSolver:  Solving for Uz, Initial residual = 0.000767275, Final residual = 4.80348e-05, No Iterations 3
GAMG:  Solving for p, Initial residual = 0.00221529, Final residual = 0.000198318, No Iterations 2
time step continuity errors : sum local = 1.70174e-05, global = 8.20553e-08, cumulative = -5.05937e-05
ExecutionTime = 151.66 s  ClockTime = 152 s

Time = 0.665

smoothSolver:  Solving for Ux, Initial residual = 0.000962465, Final residual = 6.38273e-05, No Iterations 3
smoothSolver:  Solving for Uy, Initial residual = 0.000788301, Final residual = 4.90874e-05, No Iterations 3
smoothSolver:  Solving for Uz, Initial residual = 0.000757719, Final residual = 4.74708e-05, No Iterations 3
GAMG:  Solving for p, Initial residual = 0.00217358, Final residual = 0.000193559, No Iterations 2
time step continuity errors : sum local = 1.66225e-05, global = 9.85371e-08, cumulative = -5.04951e-05
ExecutionTime = 152.63 s  ClockTime = 153 s

Time = 0.67

smoothSolver:  Solving for Ux, Initial residual = 0.000949803, Final residual = 6.29494e-05, No Iterations 3
smoothSolver:  Solving for Uy, Initial residual = 0.000773967, Final residual = 4.821e-05, No Iterations 3
smoothSolver:  Solving for Uz, Initial residual = 0.000747625, Final residual = 4.68688e-05, No Iterations 3
GAMG:  Solving for p, Initial residual = 0.00213221, Final residual = 0.000188718, No Iterations 2
time step continuity errors : sum local = 1.62195e-05, global = 1.13178e-07, cumulative = -5.0382e-05
ExecutionTime = 153.83 s  ClockTime = 155 s

Time = 0.675

smoothSolver:  Solving for Ux, Initial residual = 0.000937426, Final residual = 6.21124e-05, No Iterations 3
smoothSolver:  Solving for Uy, Initial residual = 0.000759504, Final residual = 4.73153e-05, No Iterations 3
smoothSolver:  Solving for Uz, Initial residual = 0.000737096, Final residual = 4.62433e-05, No Iterations 3
GAMG:  Solving for p, Initial residual = 0.00209167, Final residual = 0.000183849, No Iterations 2
time step continuity errors : sum local = 1.58131e-05, global = 1.25185e-07, cumulative = -5.02568e-05
ExecutionTime = 154.99 s  ClockTime = 156 s

Time = 0.68

[...]

smoothSolver:  Solving for Ux, Initial residual = 1.61816e-06, Final residual = 1.1387e-07, No Iterations 3
smoothSolver:  Solving for Uy, Initial residual = 8.97715e-07, Final residual = 5.28642e-08, No Iterations 3
smoothSolver:  Solving for Uz, Initial residual = 1.07986e-06, Final residual = 6.66845e-08, No Iterations 3
GAMG:  Solving for p, Initial residual = 3.10087e-06, Final residual = 2.52119e-07, No Iterations 2
time step continuity errors : sum local = 2.02142e-08, global = 1.32711e-09, cumulative = 1.70263e-05
ExecutionTime = 1958.6 s  ClockTime = 1980 s

Time = 9.84

smoothSolver:  Solving for Ux, Initial residual = 1.61307e-06, Final residual = 1.13518e-07, No Iterations 3
smoothSolver:  Solving for Uy, Initial residual = 8.95042e-07, Final residual = 5.27074e-08, No Iterations 3
smoothSolver:  Solving for Uz, Initial residual = 1.07666e-06, Final residual = 6.64905e-08, No Iterations 3
GAMG:  Solving for p, Initial residual = 3.09127e-06, Final residual = 2.51364e-07, No Iterations 2
time step continuity errors : sum local = 2.01536e-08, global = 1.32322e-09, cumulative = 1.70276e-05
ExecutionTime = 1959.29 s  ClockTime = 1980 s

Time = 9.845

smoothSolver:  Solving for Ux, Initial residual = 1.608e-06, Final residual = 1.13168e-07, No Iterations 3
smoothSolver:  Solving for Uy, Initial residual = 8.92378e-07, Final residual = 5.25511e-08, No Iterations 3
smoothSolver:  Solving for Uz, Initial residual = 1.07346e-06, Final residual = 6.62971e-08, No Iterations 3
GAMG:  Solving for p, Initial residual = 3.0817e-06, Final residual = 2.5061e-07, No Iterations 2
time step continuity errors : sum local = 2.00931e-08, global = 1.31934e-09, cumulative = 1.7029e-05
ExecutionTime = 1959.97 s  ClockTime = 1981 s

Time = 9.85

smoothSolver:  Solving for Ux, Initial residual = 1.60294e-06, Final residual = 1.12819e-07, No Iterations 3
smoothSolver:  Solving for Uy, Initial residual = 8.89722e-07, Final residual = 5.23953e-08, No Iterations 3
smoothSolver:  Solving for Uz, Initial residual = 1.07028e-06, Final residual = 6.61042e-08, No Iterations 3
GAMG:  Solving for p, Initial residual = 3.07216e-06, Final residual = 2.49859e-07, No Iterations 2
time step continuity errors : sum local = 2.00329e-08, global = 1.31546e-09, cumulative = 1.70303e-05
ExecutionTime = 1960.65 s  ClockTime = 1982 s

Time = 9.855

smoothSolver:  Solving for Ux, Initial residual = 1.5979e-06, Final residual = 1.12471e-07, No Iterations 3
smoothSolver:  Solving for Uy, Initial residual = 8.87074e-07, Final residual = 5.224e-08, No Iterations 3
smoothSolver:  Solving for Uz, Initial residual = 1.0671e-06, Final residual = 6.59119e-08, No Iterations 3
GAMG:  Solving for p, Initial residual = 3.06266e-06, Final residual = 2.49111e-07, No Iterations 2
time step continuity errors : sum local = 1.99728e-08, global = 1.3116e-09, cumulative = 1.70316e-05
ExecutionTime = 1961.32 s  ClockTime = 1982 s

Time = 9.86

smoothSolver:  Solving for Ux, Initial residual = 1.59288e-06, Final residual = 1.12124e-07, No Iterations 3
smoothSolver:  Solving for Uy, Initial residual = 8.84435e-07, Final residual = 5.20852e-08, No Iterations 3
smoothSolver:  Solving for Uz, Initial residual = 1.06393e-06, Final residual = 6.57201e-08, No Iterations 3
GAMG:  Solving for p, Initial residual = 3.05318e-06, Final residual = 2.48364e-07, No Iterations 2
time step continuity errors : sum local = 1.9913e-08, global = 1.30774e-09, cumulative = 1.70329e-05
ExecutionTime = 1961.99 s  ClockTime = 1983 s

Time = 9.865

smoothSolver:  Solving for Ux, Initial residual = 1.58788e-06, Final residual = 1.11778e-07, No Iterations 3
smoothSolver:  Solving for Uy, Initial residual = 8.81803e-07, Final residual = 5.19308e-08, No Iterations 3
smoothSolver:  Solving for Uz, Initial residual = 1.06078e-06, Final residual = 6.55289e-08, No Iterations 3
GAMG:  Solving for p, Initial residual = 3.04375e-06, Final residual = 2.4762e-07, No Iterations 2
time step continuity errors : sum local = 1.98533e-08, global = 1.3039e-09, cumulative = 1.70342e-05
ExecutionTime = 1962.65 s  ClockTime = 1984 s

Time = 9.87

smoothSolver:  Solving for Ux, Initial residual = 1.58289e-06, Final residual = 1.11433e-07, No Iterations 3
smoothSolver:  Solving for Uy, Initial residual = 8.79179e-07, Final residual = 5.17768e-08, No Iterations 3
smoothSolver:  Solving for Uz, Initial residual = 1.05763e-06, Final residual = 6.53382e-08, No Iterations 3
GAMG:  Solving for p, Initial residual = 3.03434e-06, Final residual = 2.46878e-07, No Iterations 2
time step continuity errors : sum local = 1.97937e-08, global = 1.30006e-09, cumulative = 1.70355e-05
ExecutionTime = 1963.32 s  ClockTime = 1984 s

Time = 9.875

smoothSolver:  Solving for Ux, Initial residual = 1.57792e-06, Final residual = 1.11089e-07, No Iterations 3
smoothSolver:  Solving for Uy, Initial residual = 8.76564e-07, Final residual = 5.16234e-08, No Iterations 3
smoothSolver:  Solving for Uz, Initial residual = 1.05449e-06, Final residual = 6.51481e-08, No Iterations 3
GAMG:  Solving for p, Initial residual = 3.02497e-06, Final residual = 2.46138e-07, No Iterations 2
time step continuity errors : sum local = 1.97344e-08, global = 1.29624e-09, cumulative = 1.70368e-05
ExecutionTime = 1963.98 s  ClockTime = 1985 s

Time = 9.88

smoothSolver:  Solving for Ux, Initial residual = 1.57297e-06, Final residual = 1.10747e-07, No Iterations 3
smoothSolver:  Solving for Uy, Initial residual = 8.73956e-07, Final residual = 5.14704e-08, No Iterations 3
smoothSolver:  Solving for Uz, Initial residual = 1.05136e-06, Final residual = 6.49586e-08, No Iterations 3
GAMG:  Solving for p, Initial residual = 3.01562e-06, Final residual = 2.45401e-07, No Iterations 2
time step continuity errors : sum local = 1.96752e-08, global = 1.29243e-09, cumulative = 1.70381e-05
ExecutionTime = 1964.64 s  ClockTime = 1986 s

Time = 9.885

smoothSolver:  Solving for Ux, Initial residual = 1.56803e-06, Final residual = 1.10405e-07, No Iterations 3
smoothSolver:  Solving for Uy, Initial residual = 8.71356e-07, Final residual = 5.13179e-08, No Iterations 3
smoothSolver:  Solving for Uz, Initial residual = 1.04824e-06, Final residual = 6.47696e-08, No Iterations 3
GAMG:  Solving for p, Initial residual = 3.00631e-06, Final residual = 2.44666e-07, No Iterations 2
time step continuity errors : sum local = 1.96162e-08, global = 1.28863e-09, cumulative = 1.70394e-05
ExecutionTime = 1965.31 s  ClockTime = 1986 s

Time = 9.89

smoothSolver:  Solving for Ux, Initial residual = 1.56311e-06, Final residual = 1.10065e-07, No Iterations 3
smoothSolver:  Solving for Uy, Initial residual = 8.68764e-07, Final residual = 5.11659e-08, No Iterations 3
smoothSolver:  Solving for Uz, Initial residual = 1.04513e-06, Final residual = 6.45812e-08, No Iterations 3
GAMG:  Solving for p, Initial residual = 2.99703e-06, Final residual = 2.43932e-07, No Iterations 2
time step continuity errors : sum local = 1.95574e-08, global = 1.28484e-09, cumulative = 1.70407e-05
ExecutionTime = 1965.97 s  ClockTime = 1987 s

Time = 9.895

smoothSolver:  Solving for Ux, Initial residual = 1.5582e-06, Final residual = 1.09725e-07, No Iterations 3
smoothSolver:  Solving for Uy, Initial residual = 8.6618e-07, Final residual = 5.10143e-08, No Iterations 3
smoothSolver:  Solving for Uz, Initial residual = 1.04203e-06, Final residual = 6.43933e-08, No Iterations 3
GAMG:  Solving for p, Initial residual = 2.98777e-06, Final residual = 2.43201e-07, No Iterations 2
time step continuity errors : sum local = 1.94988e-08, global = 1.28106e-09, cumulative = 1.70419e-05
ExecutionTime = 1966.63 s  ClockTime = 1988 s

Time = 9.9

smoothSolver:  Solving for Ux, Initial residual = 1.55331e-06, Final residual = 1.09387e-07, No Iterations 3
smoothSolver:  Solving for Uy, Initial residual = 8.63603e-07, Final residual = 5.08632e-08, No Iterations 3
smoothSolver:  Solving for Uz, Initial residual = 1.03894e-06, Final residual = 6.4206e-08, No Iterations 3
GAMG:  Solving for p, Initial residual = 2.97855e-06, Final residual = 2.42473e-07, No Iterations 2
time step continuity errors : sum local = 1.94403e-08, global = 1.2773e-09, cumulative = 1.70432e-05
ExecutionTime = 1967.29 s  ClockTime = 1988 s

Time = 9.905

smoothSolver:  Solving for Ux, Initial residual = 1.54844e-06, Final residual = 1.0905e-07, No Iterations 3
smoothSolver:  Solving for Uy, Initial residual = 8.61034e-07, Final residual = 5.07125e-08, No Iterations 3
smoothSolver:  Solving for Uz, Initial residual = 1.03585e-06, Final residual = 6.40192e-08, No Iterations 3
GAMG:  Solving for p, Initial residual = 2.96935e-06, Final residual = 2.41746e-07, No Iterations 2
time step continuity errors : sum local = 1.9382e-08, global = 1.27354e-09, cumulative = 1.70445e-05
ExecutionTime = 1967.96 s  ClockTime = 1989 s

Time = 9.91

smoothSolver:  Solving for Ux, Initial residual = 1.54358e-06, Final residual = 1.08713e-07, No Iterations 3
smoothSolver:  Solving for Uy, Initial residual = 8.58473e-07, Final residual = 5.05623e-08, No Iterations 3
smoothSolver:  Solving for Uz, Initial residual = 1.03278e-06, Final residual = 6.38329e-08, No Iterations 3
GAMG:  Solving for p, Initial residual = 2.96018e-06, Final residual = 2.41022e-07, No Iterations 2
time step continuity errors : sum local = 1.93239e-08, global = 1.26979e-09, cumulative = 1.70458e-05
ExecutionTime = 1968.63 s  ClockTime = 1990 s

Time = 9.915

smoothSolver:  Solving for Ux, Initial residual = 1.53874e-06, Final residual = 1.08378e-07, No Iterations 3
smoothSolver:  Solving for Uy, Initial residual = 8.55919e-07, Final residual = 5.04125e-08, No Iterations 3
smoothSolver:  Solving for Uz, Initial residual = 1.02971e-06, Final residual = 6.36472e-08, No Iterations 3
GAMG:  Solving for p, Initial residual = 2.95104e-06, Final residual = 2.403e-07, No Iterations 2
time step continuity errors : sum local = 1.9266e-08, global = 1.26605e-09, cumulative = 1.7047e-05
ExecutionTime = 1969.3 s  ClockTime = 1990 s

Time = 9.92

smoothSolver:  Solving for Ux, Initial residual = 1.53392e-06, Final residual = 1.08044e-07, No Iterations 3
smoothSolver:  Solving for Uy, Initial residual = 8.53374e-07, Final residual = 5.02631e-08, No Iterations 3
smoothSolver:  Solving for Uz, Initial residual = 1.02666e-06, Final residual = 6.3462e-08, No Iterations 3
GAMG:  Solving for p, Initial residual = 2.94193e-06, Final residual = 2.3958e-07, No Iterations 2
time step continuity errors : sum local = 1.92082e-08, global = 1.26231e-09, cumulative = 1.70483e-05
ExecutionTime = 1969.98 s  ClockTime = 1991 s

Time = 9.925

smoothSolver:  Solving for Ux, Initial residual = 1.52911e-06, Final residual = 1.07711e-07, No Iterations 3
smoothSolver:  Solving for Uy, Initial residual = 8.50836e-07, Final residual = 5.01142e-08, No Iterations 3
smoothSolver:  Solving for Uz, Initial residual = 1.02361e-06, Final residual = 6.32773e-08, No Iterations 3
GAMG:  Solving for p, Initial residual = 2.93284e-06, Final residual = 2.38862e-07, No Iterations 2
time step continuity errors : sum local = 1.91506e-08, global = 1.25859e-09, cumulative = 1.70496e-05
ExecutionTime = 1970.64 s  ClockTime = 1992 s

Time = 9.93

smoothSolver:  Solving for Ux, Initial residual = 1.52431e-06, Final residual = 1.07378e-07, No Iterations 3
smoothSolver:  Solving for Uy, Initial residual = 8.48305e-07, Final residual = 4.99658e-08, No Iterations 3
smoothSolver:  Solving for Uz, Initial residual = 1.02058e-06, Final residual = 6.30931e-08, No Iterations 3
GAMG:  Solving for p, Initial residual = 2.92379e-06, Final residual = 2.38146e-07, No Iterations 2
time step continuity errors : sum local = 1.90932e-08, global = 1.25488e-09, cumulative = 1.70508e-05
ExecutionTime = 1971.31 s  ClockTime = 1992 s

Time = 9.935

smoothSolver:  Solving for Ux, Initial residual = 1.51954e-06, Final residual = 1.07047e-07, No Iterations 3
smoothSolver:  Solving for Uy, Initial residual = 8.45782e-07, Final residual = 4.98179e-08, No Iterations 3
smoothSolver:  Solving for Uz, Initial residual = 1.01755e-06, Final residual = 6.29095e-08, No Iterations 3
GAMG:  Solving for p, Initial residual = 2.91476e-06, Final residual = 2.37433e-07, No Iterations 2
time step continuity errors : sum local = 1.9036e-08, global = 1.25119e-09, cumulative = 1.70521e-05
ExecutionTime = 1971.97 s  ClockTime = 1993 s

Time = 9.94

smoothSolver:  Solving for Ux, Initial residual = 1.51477e-06, Final residual = 1.06717e-07, No Iterations 3
smoothSolver:  Solving for Uy, Initial residual = 8.43266e-07, Final residual = 4.96704e-08, No Iterations 3
smoothSolver:  Solving for Uz, Initial residual = 1.01453e-06, Final residual = 6.27264e-08, No Iterations 3
GAMG:  Solving for p, Initial residual = 2.90576e-06, Final residual = 2.36721e-07, No Iterations 2
time step continuity errors : sum local = 1.89789e-08, global = 1.24751e-09, cumulative = 1.70533e-05
ExecutionTime = 1972.64 s  ClockTime = 1994 s

Time = 9.945

smoothSolver:  Solving for Ux, Initial residual = 1.51002e-06, Final residual = 1.06388e-07, No Iterations 3
smoothSolver:  Solving for Uy, Initial residual = 8.40758e-07, Final residual = 4.95235e-08, No Iterations 3
smoothSolver:  Solving for Uz, Initial residual = 1.01152e-06, Final residual = 6.25438e-08, No Iterations 3
GAMG:  Solving for p, Initial residual = 2.89679e-06, Final residual = 2.36012e-07, No Iterations 2
time step continuity errors : sum local = 1.8922e-08, global = 1.24386e-09, cumulative = 1.70546e-05
ExecutionTime = 1973.31 s  ClockTime = 1994 s

Time = 9.95

smoothSolver:  Solving for Ux, Initial residual = 1.50529e-06, Final residual = 1.0606e-07, No Iterations 3
smoothSolver:  Solving for Uy, Initial residual = 8.38258e-07, Final residual = 4.9377e-08, No Iterations 3
smoothSolver:  Solving for Uz, Initial residual = 1.00852e-06, Final residual = 6.23617e-08, No Iterations 3
GAMG:  Solving for p, Initial residual = 2.88786e-06, Final residual = 2.35305e-07, No Iterations 2
time step continuity errors : sum local = 1.88653e-08, global = 1.24022e-09, cumulative = 1.70558e-05
ExecutionTime = 1973.97 s  ClockTime = 1995 s

Time = 9.955

smoothSolver:  Solving for Ux, Initial residual = 1.50057e-06, Final residual = 1.05733e-07, No Iterations 3
smoothSolver:  Solving for Uy, Initial residual = 8.35767e-07, Final residual = 4.9231e-08, No Iterations 3
smoothSolver:  Solving for Uz, Initial residual = 1.00552e-06, Final residual = 6.21802e-08, No Iterations 3
GAMG:  Solving for p, Initial residual = 2.87896e-06, Final residual = 2.34599e-07, No Iterations 2
time step continuity errors : sum local = 1.88087e-08, global = 1.2366e-09, cumulative = 1.7057e-05
ExecutionTime = 1974.64 s  ClockTime = 1996 s

Time = 9.96

smoothSolver:  Solving for Ux, Initial residual = 1.49587e-06, Final residual = 1.05407e-07, No Iterations 3
smoothSolver:  Solving for Uy, Initial residual = 8.33283e-07, Final residual = 4.90855e-08, No Iterations 3
smoothSolver:  Solving for Uz, Initial residual = 1.00254e-06, Final residual = 6.19992e-08, No Iterations 3
GAMG:  Solving for p, Initial residual = 2.87009e-06, Final residual = 2.33896e-07, No Iterations 2
time step continuity errors : sum local = 1.87523e-08, global = 1.23298e-09, cumulative = 1.70583e-05
ExecutionTime = 1975.3 s  ClockTime = 1996 s

Time = 9.965

smoothSolver:  Solving for Ux, Initial residual = 1.49118e-06, Final residual = 1.05082e-07, No Iterations 3
smoothSolver:  Solving for Uy, Initial residual = 8.30807e-07, Final residual = 4.89404e-08, No Iterations 3
smoothSolver:  Solving for Uz, Initial residual = 9.99567e-07, Final residual = 6.18188e-08, No Iterations 3
GAMG:  Solving for p, Initial residual = 2.86124e-06, Final residual = 2.33195e-07, No Iterations 2
time step continuity errors : sum local = 1.86961e-08, global = 1.22937e-09, cumulative = 1.70595e-05
ExecutionTime = 1975.96 s  ClockTime = 1997 s

Time = 9.97

smoothSolver:  Solving for Ux, Initial residual = 1.48651e-06, Final residual = 1.04759e-07, No Iterations 3
smoothSolver:  Solving for Uy, Initial residual = 8.28338e-07, Final residual = 4.87958e-08, No Iterations 3
smoothSolver:  Solving for Uz, Initial residual = 9.96603e-07, Final residual = 6.1639e-08, No Iterations 3
GAMG:  Solving for p, Initial residual = 2.85242e-06, Final residual = 2.32497e-07, No Iterations 2
time step continuity errors : sum local = 1.86401e-08, global = 1.22577e-09, cumulative = 1.70607e-05
ExecutionTime = 1976.62 s  ClockTime = 1998 s

Time = 9.975

smoothSolver:  Solving for Ux, Initial residual = 1.48186e-06, Final residual = 1.04436e-07, No Iterations 3
smoothSolver:  Solving for Uy, Initial residual = 8.25877e-07, Final residual = 4.86516e-08, No Iterations 3
smoothSolver:  Solving for Uz, Initial residual = 9.93647e-07, Final residual = 6.14597e-08, No Iterations 3
GAMG:  Solving for p, Initial residual = 2.84363e-06, Final residual = 2.318e-07, No Iterations 2
time step continuity errors : sum local = 1.85842e-08, global = 1.22216e-09, cumulative = 1.70619e-05
ExecutionTime = 1977.28 s  ClockTime = 1998 s

Time = 9.98

smoothSolver:  Solving for Ux, Initial residual = 1.47721e-06, Final residual = 1.04114e-07, No Iterations 3
smoothSolver:  Solving for Uy, Initial residual = 8.23424e-07, Final residual = 4.85078e-08, No Iterations 3
smoothSolver:  Solving for Uz, Initial residual = 9.90701e-07, Final residual = 6.12809e-08, No Iterations 3
GAMG:  Solving for p, Initial residual = 2.83487e-06, Final residual = 2.31106e-07, No Iterations 2
time step continuity errors : sum local = 1.85285e-08, global = 1.21856e-09, cumulative = 1.70632e-05
ExecutionTime = 1977.95 s  ClockTime = 1999 s

Time = 9.985

smoothSolver:  Solving for Ux, Initial residual = 1.47259e-06, Final residual = 1.03793e-07, No Iterations 3
smoothSolver:  Solving for Uy, Initial residual = 8.20978e-07, Final residual = 4.83644e-08, No Iterations 3
smoothSolver:  Solving for Uz, Initial residual = 9.87764e-07, Final residual = 6.11026e-08, No Iterations 3
GAMG:  Solving for p, Initial residual = 2.82613e-06, Final residual = 2.30414e-07, No Iterations 2
time step continuity errors : sum local = 1.84729e-08, global = 1.21497e-09, cumulative = 1.70644e-05
ExecutionTime = 1978.64 s  ClockTime = 2000 s

Time = 9.99

smoothSolver:  Solving for Ux, Initial residual = 1.46798e-06, Final residual = 1.03473e-07, No Iterations 3
smoothSolver:  Solving for Uy, Initial residual = 8.1854e-07, Final residual = 4.82215e-08, No Iterations 3
smoothSolver:  Solving for Uz, Initial residual = 9.84835e-07, Final residual = 6.09248e-08, No Iterations 3
GAMG:  Solving for p, Initial residual = 2.81742e-06, Final residual = 2.29723e-07, No Iterations 2
time step continuity errors : sum local = 1.84176e-08, global = 1.21137e-09, cumulative = 1.70656e-05
ExecutionTime = 1979.31 s  ClockTime = 2000 s

Time = 9.995

smoothSolver:  Solving for Ux, Initial residual = 1.46338e-06, Final residual = 1.03154e-07, No Iterations 3
smoothSolver:  Solving for Uy, Initial residual = 8.16109e-07, Final residual = 4.80791e-08, No Iterations 3
smoothSolver:  Solving for Uz, Initial residual = 9.81913e-07, Final residual = 6.07475e-08, No Iterations 3
GAMG:  Solving for p, Initial residual = 2.80872e-06, Final residual = 2.29035e-07, No Iterations 2
time step continuity errors : sum local = 1.83624e-08, global = 1.20779e-09, cumulative = 1.70668e-05
ExecutionTime = 1979.99 s  ClockTime = 2001 s

Time = 10

smoothSolver:  Solving for Ux, Initial residual = 1.4588e-06, Final residual = 1.02836e-07, No Iterations 3
smoothSolver:  Solving for Uy, Initial residual = 8.13685e-07, Final residual = 4.7937e-08, No Iterations 3
smoothSolver:  Solving for Uz, Initial residual = 9.79002e-07, Final residual = 6.05707e-08, No Iterations 3
GAMG:  Solving for p, Initial residual = 2.80005e-06, Final residual = 2.28349e-07, No Iterations 2
time step continuity errors : sum local = 1.83073e-08, global = 1.20422e-09, cumulative = 1.7068e-05
ExecutionTime = 1981.52 s  ClockTime = 2003 s

End

