/*---------------------------------------------------------------------------*\
  =========                 |
  \\      /  F ield         | OpenFOAM: The Open Source CFD Toolbox
   \\    /   O peration     | Website:  https://openfoam.org
    \\  /    A nd           | Version:  7
     \\/     M anipulation  |
\*---------------------------------------------------------------------------*/
Build  : 7-ca808c8420bf
Exec   : simpleFoam
Date   : Mar 13 2020
Time   : 13:16:06
Host   : "bn371671"
PID    : 25531
I/O    : uncollated
Case   : /hpc_atog/bsha219/OpenFoam-Tutorials/Bifurcations
nProcs : 1
sigFpe : Enabling floating point exception trapping (FOAM_SIGFPE).
fileModificationChecking : Monitoring run-time modified files using timeStampMaster (fileModificationSkew 10)
allowSystemOperations : Allowing user-supplied system call operations

// * * * * * * * * * * * * * * * * * * * * * * * * * * * * * * * * * * * * * //
Create time

Create mesh for time = 0


SIMPLE: Convergence criteria found
        p: tolerance 1e-06
        U: tolerance 1e-06
        "(k|epsilon|omega|f|v2)": tolerance 0.001

Reading field p

Reading field U

Reading/calculating face flux field phi

Selecting incompressible transport model Newtonian
Selecting turbulence model type laminar
Selecting laminar stress model Stokes
No MRF models present

No finite volume options present

Starting time loop

Time = 1

smoothSolver:  Solving for Ux, Initial residual = 1, Final residual = 0.0989105, No Iterations 2
smoothSolver:  Solving for Uy, Initial residual = 1, Final residual = 0.051086, No Iterations 1
smoothSolver:  Solving for Uz, Initial residual = 1, Final residual = 0.090295, No Iterations 2
GAMG:  Solving for p, Initial residual = 1, Final residual = 0.0637645, No Iterations 7
time step continuity errors : sum local = 1.48264e-07, global = -6.68848e-09, cumulative = -6.68848e-09
ExecutionTime = 4.98 s  ClockTime = 5 s

Time = 2

smoothSolver:  Solving for Ux, Initial residual = 0.143827, Final residual = 0.00721797, No Iterations 2
smoothSolver:  Solving for Uy, Initial residual = 0.147819, Final residual = 0.00695705, No Iterations 2
smoothSolver:  Solving for Uz, Initial residual = 0.141536, Final residual = 0.00686284, No Iterations 2
GAMG:  Solving for p, Initial residual = 0.0828059, Final residual = 0.00564364, No Iterations 3
time step continuity errors : sum local = 2.48915e-07, global = 1.69245e-08, cumulative = 1.0236e-08
ExecutionTime = 6.31 s  ClockTime = 7 s

Time = 3

smoothSolver:  Solving for Ux, Initial residual = 0.0855305, Final residual = 0.00527945, No Iterations 2
smoothSolver:  Solving for Uy, Initial residual = 0.0726478, Final residual = 0.00423543, No Iterations 2
smoothSolver:  Solving for Uz, Initial residual = 0.0824226, Final residual = 0.00505788, No Iterations 2
GAMG:  Solving for p, Initial residual = 0.0496686, Final residual = 0.00227092, No Iterations 5
time step continuity errors : sum local = 7.73911e-08, global = 1.30916e-08, cumulative = 2.33276e-08
ExecutionTime = 7.8 s  ClockTime = 8 s

Time = 4

smoothSolver:  Solving for Ux, Initial residual = 0.0500328, Final residual = 0.00251989, No Iterations 2
smoothSolver:  Solving for Uy, Initial residual = 0.0465356, Final residual = 0.00237615, No Iterations 2
smoothSolver:  Solving for Uz, Initial residual = 0.0508175, Final residual = 0.00273575, No Iterations 2
GAMG:  Solving for p, Initial residual = 0.0943652, Final residual = 0.00415346, No Iterations 3
time step continuity errors : sum local = 5.95163e-08, global = 7.59225e-09, cumulative = 3.09199e-08
ExecutionTime = 9.14 s  ClockTime = 9 s

Time = 5

smoothSolver:  Solving for Ux, Initial residual = 0.0396017, Final residual = 0.00220663, No Iterations 2
smoothSolver:  Solving for Uy, Initial residual = 0.0363993, Final residual = 0.00197699, No Iterations 2
smoothSolver:  Solving for Uz, Initial residual = 0.0401243, Final residual = 0.00233734, No Iterations 2
GAMG:  Solving for p, Initial residual = 0.102644, Final residual = 0.00652283, No Iterations 2
time step continuity errors : sum local = 6.87145e-08, global = -1.62977e-09, cumulative = 2.92901e-08
ExecutionTime = 10.41 s  ClockTime = 11 s

Time = 6

smoothSolver:  Solving for Ux, Initial residual = 0.0347834, Final residual = 0.00212266, No Iterations 2
smoothSolver:  Solving for Uy, Initial residual = 0.0311158, Final residual = 0.00179542, No Iterations 2
smoothSolver:  Solving for Uz, Initial residual = 0.0343298, Final residual = 0.00214359, No Iterations 2
GAMG:  Solving for p, Initial residual = 0.0851923, Final residual = 0.00651432, No Iterations 2
time step continuity errors : sum local = 6.69329e-08, global = -5.74127e-09, cumulative = 2.35488e-08
ExecutionTime = 11.66 s  ClockTime = 12 s

Time = 7

smoothSolver:  Solving for Ux, Initial residual = 0.0317412, Final residual = 0.00204183, No Iterations 2
smoothSolver:  Solving for Uy, Initial residual = 0.027638, Final residual = 0.00166483, No Iterations 2
smoothSolver:  Solving for Uz, Initial residual = 0.0306027, Final residual = 0.00198166, No Iterations 2
GAMG:  Solving for p, Initial residual = 0.0681426, Final residual = 0.00680657, No Iterations 2
time step continuity errors : sum local = 7.12334e-08, global = -5.75179e-09, cumulative = 1.7797e-08
ExecutionTime = 12.9 s  ClockTime = 13 s

Time = 8

smoothSolver:  Solving for Ux, Initial residual = 0.0293205, Final residual = 0.00197412, No Iterations 2
smoothSolver:  Solving for Uy, Initial residual = 0.0250243, Final residual = 0.00158116, No Iterations 2
smoothSolver:  Solving for Uz, Initial residual = 0.0280673, Final residual = 0.00189501, No Iterations 2
GAMG:  Solving for p, Initial residual = 0.0518966, Final residual = 0.00461758, No Iterations 2
time step continuity errors : sum local = 5.34128e-08, global = -4.09356e-09, cumulative = 1.37035e-08
ExecutionTime = 14.16 s  ClockTime = 15 s

Time = 9

smoothSolver:  Solving for Ux, Initial residual = 0.0273152, Final residual = 0.00190615, No Iterations 2
smoothSolver:  Solving for Uy, Initial residual = 0.0229727, Final residual = 0.00150389, No Iterations 2
smoothSolver:  Solving for Uz, Initial residual = 0.026168, Final residual = 0.00183402, No Iterations 2
GAMG:  Solving for p, Initial residual = 0.0419426, Final residual = 0.00307397, No Iterations 2
time step continuity errors : sum local = 3.84784e-08, global = -2.66269e-09, cumulative = 1.10408e-08
ExecutionTime = 15.39 s  ClockTime = 16 s

Time = 10

smoothSolver:  Solving for Ux, Initial residual = 0.0255387, Final residual = 0.00181894, No Iterations 2
smoothSolver:  Solving for Uy, Initial residual = 0.021161, Final residual = 0.00141387, No Iterations 2
smoothSolver:  Solving for Uz, Initial residual = 0.0242779, Final residual = 0.00174014, No Iterations 2
GAMG:  Solving for p, Initial residual = 0.0379179, Final residual = 0.0029318, No Iterations 2
time step continuity errors : sum local = 3.70679e-08, global = -1.26911e-09, cumulative = 9.77166e-09
ExecutionTime = 16.65 s  ClockTime = 17 s

Time = 11

smoothSolver:  Solving for Ux, Initial residual = 0.0240352, Final residual = 0.00173478, No Iterations 2
smoothSolver:  Solving for Uy, Initial residual = 0.0195567, Final residual = 0.00131531, No Iterations 2
smoothSolver:  Solving for Uz, Initial residual = 0.0225287, Final residual = 0.0016377, No Iterations 2
GAMG:  Solving for p, Initial residual = 0.0347494, Final residual = 0.00275305, No Iterations 2
time step continuity errors : sum local = 3.49666e-08, global = -1.12745e-10, cumulative = 9.65891e-09
ExecutionTime = 17.92 s  ClockTime = 18 s

Time = 12

smoothSolver:  Solving for Ux, Initial residual = 0.0226859, Final residual = 0.00165204, No Iterations 2
smoothSolver:  Solving for Uy, Initial residual = 0.0181737, Final residual = 0.00122576, No Iterations 2
smoothSolver:  Solving for Uz, Initial residual = 0.0209306, Final residual = 0.00153657, No Iterations 2
GAMG:  Solving for p, Initial residual = 0.0320662, Final residual = 0.0024772, No Iterations 2
time step continuity errors : sum local = 3.15336e-08, global = 8.31015e-10, cumulative = 1.04899e-08
ExecutionTime = 19.15 s  ClockTime = 20 s

Time = 13

smoothSolver:  Solving for Ux, Initial residual = 0.0214462, Final residual = 0.00156989, No Iterations 2
smoothSolver:  Solving for Uy, Initial residual = 0.0170096, Final residual = 0.00114702, No Iterations 2
smoothSolver:  Solving for Uz, Initial residual = 0.0194937, Final residual = 0.00144209, No Iterations 2
GAMG:  Solving for p, Initial residual = 0.0299093, Final residual = 0.00219951, No Iterations 2
time step continuity errors : sum local = 2.79645e-08, global = 1.35644e-09, cumulative = 1.18464e-08
ExecutionTime = 20.39 s  ClockTime = 21 s

Time = 14

smoothSolver:  Solving for Ux, Initial residual = 0.0203248, Final residual = 0.00149044, No Iterations 2
smoothSolver:  Solving for Uy, Initial residual = 0.0159741, Final residual = 0.00108038, No Iterations 2
smoothSolver:  Solving for Uz, Initial residual = 0.018198, Final residual = 0.00135292, No Iterations 2
GAMG:  Solving for p, Initial residual = 0.0281128, Final residual = 0.00200381, No Iterations 2
time step continuity errors : sum local = 2.52935e-08, global = 1.2752e-09, cumulative = 1.31216e-08
ExecutionTime = 21.66 s  ClockTime = 22 s

Time = 15

smoothSolver:  Solving for Ux, Initial residual = 0.0193103, Final residual = 0.00141445, No Iterations 2
smoothSolver:  Solving for Uy, Initial residual = 0.0150565, Final residual = 0.00102155, No Iterations 2
smoothSolver:  Solving for Uz, Initial residual = 0.0170085, Final residual = 0.00126704, No Iterations 2
GAMG:  Solving for p, Initial residual = 0.0268412, Final residual = 0.0018008, No Iterations 2
time step continuity errors : sum local = 2.23855e-08, global = 1.29661e-09, cumulative = 1.44182e-08
ExecutionTime = 22.89 s  ClockTime = 23 s

Time = 16

smoothSolver:  Solving for Ux, Initial residual = 0.0183928, Final residual = 0.00134626, No Iterations 2
smoothSolver:  Solving for Uy, Initial residual = 0.0142653, Final residual = 0.000971294, No Iterations 2
smoothSolver:  Solving for Uz, Initial residual = 0.0159624, Final residual = 0.00119062, No Iterations 2
GAMG:  Solving for p, Initial residual = 0.0255334, Final residual = 0.00174907, No Iterations 2
time step continuity errors : sum local = 2.15103e-08, global = 1.22838e-09, cumulative = 1.56466e-08
ExecutionTime = 24.16 s  ClockTime = 25 s

Time = 17

smoothSolver:  Solving for Ux, Initial residual = 0.0175268, Final residual = 0.00128324, No Iterations 2
smoothSolver:  Solving for Uy, Initial residual = 0.0135533, Final residual = 0.000926308, No Iterations 2
smoothSolver:  Solving for Uz, Initial residual = 0.0150615, Final residual = 0.00112487, No Iterations 2
GAMG:  Solving for p, Initial residual = 0.0242818, Final residual = 0.00174877, No Iterations 2
time step continuity errors : sum local = 2.13684e-08, global = 9.93749e-10, cumulative = 1.66403e-08
ExecutionTime = 25.43 s  ClockTime = 26 s

Time = 18

smoothSolver:  Solving for Ux, Initial residual = 0.0167248, Final residual = 0.00122359, No Iterations 2
smoothSolver:  Solving for Uy, Initial residual = 0.0129021, Final residual = 0.000884689, No Iterations 2
smoothSolver:  Solving for Uz, Initial residual = 0.0142732, Final residual = 0.001067, No Iterations 2
GAMG:  Solving for p, Initial residual = 0.0230451, Final residual = 0.00170633, No Iterations 2
time step continuity errors : sum local = 2.07527e-08, global = 6.78458e-10, cumulative = 1.73188e-08
ExecutionTime = 26.71 s  ClockTime = 27 s

Time = 19

smoothSolver:  Solving for Ux, Initial residual = 0.0159543, Final residual = 0.00116722, No Iterations 2
smoothSolver:  Solving for Uy, Initial residual = 0.0123209, Final residual = 0.000847201, No Iterations 2
smoothSolver:  Solving for Uz, Initial residual = 0.0135886, Final residual = 0.00101586, No Iterations 2
GAMG:  Solving for p, Initial residual = 0.0219284, Final residual = 0.00163944, No Iterations 2
time step continuity errors : sum local = 1.98639e-08, global = 3.74172e-10, cumulative = 1.76929e-08
ExecutionTime = 27.98 s  ClockTime = 28 s

Time = 20

smoothSolver:  Solving for Ux, Initial residual = 0.0152131, Final residual = 0.00111327, No Iterations 2
smoothSolver:  Solving for Uy, Initial residual = 0.0118017, Final residual = 0.000813363, No Iterations 2
smoothSolver:  Solving for Uz, Initial residual = 0.0129815, Final residual = 0.000969686, No Iterations 2
GAMG:  Solving for p, Initial residual = 0.0209113, Final residual = 0.00157007, No Iterations 2
time step continuity errors : sum local = 1.89652e-08, global = 1.77999e-10, cumulative = 1.78709e-08
ExecutionTime = 29.27 s  ClockTime = 30 s

Time = 21

smoothSolver:  Solving for Ux, Initial residual = 0.0144945, Final residual = 0.00106239, No Iterations 2
smoothSolver:  Solving for Uy, Initial residual = 0.0113216, Final residual = 0.000782728, No Iterations 2
smoothSolver:  Solving for Uz, Initial residual = 0.0124168, Final residual = 0.000926544, No Iterations 2
GAMG:  Solving for p, Initial residual = 0.0199975, Final residual = 0.00150145, No Iterations 2
time step continuity errors : sum local = 1.80886e-08, global = 1.42299e-10, cumulative = 1.80132e-08
ExecutionTime = 30.51 s  ClockTime = 31 s

Time = 22

smoothSolver:  Solving for Ux, Initial residual = 0.013807, Final residual = 0.00101373, No Iterations 2
smoothSolver:  Solving for Uy, Initial residual = 0.0108736, Final residual = 0.000754817, No Iterations 2
smoothSolver:  Solving for Uz, Initial residual = 0.0118931, Final residual = 0.000886276, No Iterations 2
GAMG:  Solving for p, Initial residual = 0.0192, Final residual = 0.00143064, No Iterations 2
time step continuity errors : sum local = 1.71815e-08, global = 2.99394e-10, cumulative = 1.83126e-08
ExecutionTime = 31.78 s  ClockTime = 32 s

Time = 23

smoothSolver:  Solving for Ux, Initial residual = 0.013157, Final residual = 0.000967523, No Iterations 2
smoothSolver:  Solving for Uy, Initial residual = 0.0104573, Final residual = 0.000728741, No Iterations 2
smoothSolver:  Solving for Uz, Initial residual = 0.0114051, Final residual = 0.000849218, No Iterations 2
GAMG:  Solving for p, Initial residual = 0.0184485, Final residual = 0.00135377, No Iterations 2
time step continuity errors : sum local = 1.62041e-08, global = 5.59129e-10, cumulative = 1.88718e-08
ExecutionTime = 33.11 s  ClockTime = 33 s

Time = 24

smoothSolver:  Solving for Ux, Initial residual = 0.0125415, Final residual = 0.000923589, No Iterations 2
smoothSolver:  Solving for Uy, Initial residual = 0.0100638, Final residual = 0.000703902, No Iterations 2
smoothSolver:  Solving for Uz, Initial residual = 0.0109553, Final residual = 0.000814808, No Iterations 2
GAMG:  Solving for p, Initial residual = 0.0178188, Final residual = 0.0012774, No Iterations 2
time step continuity errors : sum local = 1.52187e-08, global = 7.744e-10, cumulative = 1.96462e-08
ExecutionTime = 34.35 s  ClockTime = 35 s

Time = 25

smoothSolver:  Solving for Ux, Initial residual = 0.0119608, Final residual = 0.000881892, No Iterations 2
smoothSolver:  Solving for Uy, Initial residual = 0.00968888, Final residual = 0.000680178, No Iterations 2
smoothSolver:  Solving for Uz, Initial residual = 0.0105343, Final residual = 0.000782533, No Iterations 2
GAMG:  Solving for p, Initial residual = 0.0173265, Final residual = 0.00120103, No Iterations 2
time step continuity errors : sum local = 1.42154e-08, global = 8.48893e-10, cumulative = 2.0495e-08
ExecutionTime = 35.63 s  ClockTime = 36 s

Time = 26

smoothSolver:  Solving for Ux, Initial residual = 0.0114152, Final residual = 0.000842339, No Iterations 2
smoothSolver:  Solving for Uy, Initial residual = 0.00933283, Final residual = 0.000657465, No Iterations 2
smoothSolver:  Solving for Uz, Initial residual = 0.0101413, Final residual = 0.000752502, No Iterations 2
GAMG:  Solving for p, Initial residual = 0.0169179, Final residual = 0.0011234, No Iterations 2
time step continuity errors : sum local = 1.31943e-08, global = 8.21182e-10, cumulative = 2.13162e-08
ExecutionTime = 36.96 s  ClockTime = 37 s

Time = 27

smoothSolver:  Solving for Ux, Initial residual = 0.0109046, Final residual = 0.000805447, No Iterations 2
smoothSolver:  Solving for Uy, Initial residual = 0.00898981, Final residual = 0.000635434, No Iterations 2
smoothSolver:  Solving for Uz, Initial residual = 0.00977695, Final residual = 0.000724489, No Iterations 2
GAMG:  Solving for p, Initial residual = 0.0165327, Final residual = 0.0010587, No Iterations 2
time step continuity errors : sum local = 1.23419e-08, global = 7.42025e-10, cumulative = 2.20583e-08
ExecutionTime = 38.32 s  ClockTime = 39 s

Time = 28

smoothSolver:  Solving for Ux, Initial residual = 0.0104264, Final residual = 0.000770267, No Iterations 2
smoothSolver:  Solving for Uy, Initial residual = 0.0086554, Final residual = 0.000613696, No Iterations 2
smoothSolver:  Solving for Uz, Initial residual = 0.00942825, Final residual = 0.000698583, No Iterations 2
GAMG:  Solving for p, Initial residual = 0.0161439, Final residual = 0.001003, No Iterations 2
time step continuity errors : sum local = 1.16148e-08, global = 6.41334e-10, cumulative = 2.26996e-08
ExecutionTime = 39.66 s  ClockTime = 40 s

Time = 29

smoothSolver:  Solving for Ux, Initial residual = 0.00997125, Final residual = 0.000737216, No Iterations 2
smoothSolver:  Solving for Uy, Initial residual = 0.00833525, Final residual = 0.000591998, No Iterations 2
smoothSolver:  Solving for Uz, Initial residual = 0.00909977, Final residual = 0.000674274, No Iterations 2
GAMG:  Solving for p, Initial residual = 0.0157061, Final residual = 0.000947709, No Iterations 2
time step continuity errors : sum local = 1.09091e-08, global = 5.38893e-10, cumulative = 2.32385e-08
ExecutionTime = 41.03 s  ClockTime = 41 s

Time = 30

smoothSolver:  Solving for Ux, Initial residual = 0.00953607, Final residual = 0.000706754, No Iterations 2
smoothSolver:  Solving for Uy, Initial residual = 0.008025, Final residual = 0.000570689, No Iterations 2
smoothSolver:  Solving for Uz, Initial residual = 0.00877663, Final residual = 0.000650894, No Iterations 2
GAMG:  Solving for p, Initial residual = 0.0152441, Final residual = 0.000893071, No Iterations 2
time step continuity errors : sum local = 1.02233e-08, global = 4.4967e-10, cumulative = 2.36882e-08
ExecutionTime = 42.35 s  ClockTime = 43 s

Time = 31

smoothSolver:  Solving for Ux, Initial residual = 0.00912012, Final residual = 0.000677229, No Iterations 2
smoothSolver:  Solving for Uy, Initial residual = 0.00772545, Final residual = 0.000549851, No Iterations 2
smoothSolver:  Solving for Uz, Initial residual = 0.0084595, Final residual = 0.000628026, No Iterations 2
GAMG:  Solving for p, Initial residual = 0.0147831, Final residual = 0.000842603, No Iterations 2
time step continuity errors : sum local = 9.5958e-09, global = 3.85253e-10, cumulative = 2.40734e-08
ExecutionTime = 43.64 s  ClockTime = 44 s

Time = 32

smoothSolver:  Solving for Ux, Initial residual = 0.00872035, Final residual = 0.000649069, No Iterations 2
smoothSolver:  Solving for Uy, Initial residual = 0.00743998, Final residual = 0.000529501, No Iterations 2
smoothSolver:  Solving for Uz, Initial residual = 0.0081477, Final residual = 0.000605537, No Iterations 2
GAMG:  Solving for p, Initial residual = 0.0143265, Final residual = 0.000796565, No Iterations 2
time step continuity errors : sum local = 9.02781e-09, global = 3.41678e-10, cumulative = 2.44151e-08
ExecutionTime = 44.96 s  ClockTime = 45 s

Time = 33

smoothSolver:  Solving for Ux, Initial residual = 0.00834492, Final residual = 0.000622024, No Iterations 2
smoothSolver:  Solving for Uy, Initial residual = 0.00716354, Final residual = 0.000510129, No Iterations 2
smoothSolver:  Solving for Uz, Initial residual = 0.00783908, Final residual = 0.00058348, No Iterations 2
GAMG:  Solving for p, Initial residual = 0.0138467, Final residual = 0.000754547, No Iterations 2
time step continuity errors : sum local = 8.51301e-09, global = 3.22066e-10, cumulative = 2.47372e-08
ExecutionTime = 46.23 s  ClockTime = 47 s

Time = 34

smoothSolver:  Solving for Ux, Initial residual = 0.00798233, Final residual = 0.000596318, No Iterations 2
smoothSolver:  Solving for Uy, Initial residual = 0.00689523, Final residual = 0.000491699, No Iterations 2
smoothSolver:  Solving for Uz, Initial residual = 0.00753167, Final residual = 0.000561648, No Iterations 2
GAMG:  Solving for p, Initial residual = 0.0133831, Final residual = 0.00071753, No Iterations 2
time step continuity errors : sum local = 8.06123e-09, global = 3.279e-10, cumulative = 2.50651e-08
ExecutionTime = 47.53 s  ClockTime = 48 s

Time = 35

smoothSolver:  Solving for Ux, Initial residual = 0.00763827, Final residual = 0.000571657, No Iterations 2
smoothSolver:  Solving for Uy, Initial residual = 0.00663979, Final residual = 0.000474223, No Iterations 2
smoothSolver:  Solving for Uz, Initial residual = 0.0072365, Final residual = 0.000540268, No Iterations 2
GAMG:  Solving for p, Initial residual = 0.0129702, Final residual = 0.000685048, No Iterations 2
time step continuity errors : sum local = 7.66331e-09, global = 3.60165e-10, cumulative = 2.54252e-08
ExecutionTime = 48.85 s  ClockTime = 49 s

Time = 36

smoothSolver:  Solving for Ux, Initial residual = 0.00731097, Final residual = 0.00054783, No Iterations 2
smoothSolver:  Solving for Uy, Initial residual = 0.00639637, Final residual = 0.000457614, No Iterations 2
smoothSolver:  Solving for Uz, Initial residual = 0.00694911, Final residual = 0.000519555, No Iterations 2
GAMG:  Solving for p, Initial residual = 0.0125394, Final residual = 0.000655157, No Iterations 2
time step continuity errors : sum local = 7.29652e-09, global = 4.07597e-10, cumulative = 2.58328e-08
ExecutionTime = 50.14 s  ClockTime = 51 s

Time = 37

smoothSolver:  Solving for Ux, Initial residual = 0.00699287, Final residual = 0.000525009, No Iterations 2
smoothSolver:  Solving for Uy, Initial residual = 0.00616373, Final residual = 0.000441558, No Iterations 2
smoothSolver:  Solving for Uz, Initial residual = 0.00666684, Final residual = 0.000499592, No Iterations 2
GAMG:  Solving for p, Initial residual = 0.0121551, Final residual = 0.000627395, No Iterations 2
time step continuity errors : sum local = 6.95599e-09, global = 4.41068e-10, cumulative = 2.62739e-08
ExecutionTime = 51.41 s  ClockTime = 52 s

Time = 38

smoothSolver:  Solving for Ux, Initial residual = 0.00669124, Final residual = 0.000503088, No Iterations 2
smoothSolver:  Solving for Uy, Initial residual = 0.00594072, Final residual = 0.000426156, No Iterations 2
smoothSolver:  Solving for Uz, Initial residual = 0.00639114, Final residual = 0.000480337, No Iterations 2
GAMG:  Solving for p, Initial residual = 0.0117904, Final residual = 0.000600552, No Iterations 2
time step continuity errors : sum local = 6.62643e-09, global = 4.28982e-10, cumulative = 2.67029e-08
ExecutionTime = 52.7 s  ClockTime = 53 s

Time = 39

smoothSolver:  Solving for Ux, Initial residual = 0.00640566, Final residual = 0.000482106, No Iterations 2
smoothSolver:  Solving for Uy, Initial residual = 0.00572666, Final residual = 0.000411425, No Iterations 2
smoothSolver:  Solving for Uz, Initial residual = 0.00612499, Final residual = 0.000461499, No Iterations 2
GAMG:  Solving for p, Initial residual = 0.0114333, Final residual = 0.000572147, No Iterations 2
time step continuity errors : sum local = 6.27913e-09, global = 3.91589e-10, cumulative = 2.70945e-08
ExecutionTime = 53.95 s  ClockTime = 54 s

Time = 40

smoothSolver:  Solving for Ux, Initial residual = 0.00613688, Final residual = 0.000462393, No Iterations 2
smoothSolver:  Solving for Uy, Initial residual = 0.00552002, Final residual = 0.000397487, No Iterations 2
smoothSolver:  Solving for Uz, Initial residual = 0.00586974, Final residual = 0.000443177, No Iterations 2
GAMG:  Solving for p, Initial residual = 0.011071, Final residual = 0.000546713, No Iterations 2
time step continuity errors : sum local = 5.96711e-09, global = 3.64755e-10, cumulative = 2.74592e-08
ExecutionTime = 55.25 s  ClockTime = 56 s

Time = 41

smoothSolver:  Solving for Ux, Initial residual = 0.00588231, Final residual = 0.000443922, No Iterations 2
smoothSolver:  Solving for Uy, Initial residual = 0.00532115, Final residual = 0.00038433, No Iterations 2
smoothSolver:  Solving for Uz, Initial residual = 0.00562776, Final residual = 0.000425719, No Iterations 2
GAMG:  Solving for p, Initial residual = 0.0107025, Final residual = 0.000528578, No Iterations 2
time step continuity errors : sum local = 5.74023e-09, global = 3.48363e-10, cumulative = 2.78076e-08
ExecutionTime = 56.54 s  ClockTime = 57 s

Time = 42

smoothSolver:  Solving for Ux, Initial residual = 0.00563986, Final residual = 0.000426508, No Iterations 2
smoothSolver:  Solving for Uy, Initial residual = 0.00513121, Final residual = 0.000371889, No Iterations 2
smoothSolver:  Solving for Uz, Initial residual = 0.0053984, Final residual = 0.000409299, No Iterations 2
GAMG:  Solving for p, Initial residual = 0.010336, Final residual = 0.000512447, No Iterations 2
time step continuity errors : sum local = 5.54004e-09, global = 3.36368e-10, cumulative = 2.81439e-08
ExecutionTime = 57.79 s  ClockTime = 58 s

Time = 43

smoothSolver:  Solving for Ux, Initial residual = 0.00540972, Final residual = 0.000410143, No Iterations 2
smoothSolver:  Solving for Uy, Initial residual = 0.00495029, Final residual = 0.000360172, No Iterations 2
smoothSolver:  Solving for Uz, Initial residual = 0.00518318, Final residual = 0.000393825, No Iterations 2
GAMG:  Solving for p, Initial residual = 0.00995878, Final residual = 0.000494804, No Iterations 2
time step continuity errors : sum local = 5.32757e-09, global = 3.23869e-10, cumulative = 2.84678e-08
ExecutionTime = 59.05 s  ClockTime = 59 s

Time = 44

smoothSolver:  Solving for Ux, Initial residual = 0.00519241, Final residual = 0.000394581, No Iterations 2
smoothSolver:  Solving for Uy, Initial residual = 0.00477947, Final residual = 0.000349154, No Iterations 2
smoothSolver:  Solving for Uz, Initial residual = 0.00497931, Final residual = 0.000379226, No Iterations 2
GAMG:  Solving for p, Initial residual = 0.00959121, Final residual = 0.000475388, No Iterations 2
time step continuity errors : sum local = 5.10023e-09, global = 3.0785e-10, cumulative = 2.87757e-08
ExecutionTime = 60.34 s  ClockTime = 61 s

Time = 45

smoothSolver:  Solving for Ux, Initial residual = 0.00498668, Final residual = 0.000379961, No Iterations 2
smoothSolver:  Solving for Uy, Initial residual = 0.00461713, Final residual = 0.000338741, No Iterations 2
smoothSolver:  Solving for Uz, Initial residual = 0.00478566, Final residual = 0.000365458, No Iterations 2
GAMG:  Solving for p, Initial residual = 0.00923356, Final residual = 0.000455681, No Iterations 2
time step continuity errors : sum local = 4.87358e-09, global = 2.90663e-10, cumulative = 2.90663e-08
ExecutionTime = 61.6 s  ClockTime = 62 s

Time = 46

smoothSolver:  Solving for Ux, Initial residual = 0.00479392, Final residual = 0.000366115, No Iterations 2
smoothSolver:  Solving for Uy, Initial residual = 0.00446562, Final residual = 0.000328905, No Iterations 2
smoothSolver:  Solving for Uz, Initial residual = 0.00460123, Final residual = 0.000352339, No Iterations 2
GAMG:  Solving for p, Initial residual = 0.00887221, Final residual = 0.00043631, No Iterations 2
time step continuity errors : sum local = 4.653e-09, global = 2.73225e-10, cumulative = 2.93395e-08
ExecutionTime = 62.86 s  ClockTime = 63 s

Time = 47

smoothSolver:  Solving for Ux, Initial residual = 0.00461152, Final residual = 0.000352986, No Iterations 2
smoothSolver:  Solving for Uy, Initial residual = 0.00432217, Final residual = 0.000319561, No Iterations 2
smoothSolver:  Solving for Uz, Initial residual = 0.00442481, Final residual = 0.000339824, No Iterations 2
GAMG:  Solving for p, Initial residual = 0.00852086, Final residual = 0.000417135, No Iterations 2
time step continuity errors : sum local = 4.43657e-09, global = 2.55719e-10, cumulative = 2.95953e-08
ExecutionTime = 64.13 s  ClockTime = 64 s

Time = 48

smoothSolver:  Solving for Ux, Initial residual = 0.00443959, Final residual = 0.000340475, No Iterations 2
smoothSolver:  Solving for Uy, Initial residual = 0.00418523, Final residual = 0.000310614, No Iterations 2
smoothSolver:  Solving for Uz, Initial residual = 0.00425637, Final residual = 0.000327862, No Iterations 2
GAMG:  Solving for p, Initial residual = 0.00817464, Final residual = 0.000397438, No Iterations 2
time step continuity errors : sum local = 4.21633e-09, global = 2.38149e-10, cumulative = 2.98334e-08
ExecutionTime = 65.39 s  ClockTime = 66 s

Time = 49

smoothSolver:  Solving for Ux, Initial residual = 0.00427742, Final residual = 0.000328596, No Iterations 2
smoothSolver:  Solving for Uy, Initial residual = 0.00405501, Final residual = 0.000301998, No Iterations 2
smoothSolver:  Solving for Uz, Initial residual = 0.00409608, Final residual = 0.00031635, No Iterations 2
GAMG:  Solving for p, Initial residual = 0.00784357, Final residual = 0.000377445, No Iterations 2
time step continuity errors : sum local = 3.9944e-09, global = 2.21482e-10, cumulative = 3.00549e-08
ExecutionTime = 66.67 s  ClockTime = 67 s

Time = 50

smoothSolver:  Solving for Ux, Initial residual = 0.00412354, Final residual = 0.000317336, No Iterations 2
smoothSolver:  Solving for Uy, Initial residual = 0.00393067, Final residual = 0.000293641, No Iterations 2
smoothSolver:  Solving for Uz, Initial residual = 0.00394243, Final residual = 0.000305248, No Iterations 2
GAMG:  Solving for p, Initial residual = 0.00753362, Final residual = 0.00035793, No Iterations 2
time step continuity errors : sum local = 3.77893e-09, global = 2.06377e-10, cumulative = 3.02613e-08
ExecutionTime = 69.42 s  ClockTime = 70 s

Time = 51

smoothSolver:  Solving for Ux, Initial residual = 0.00397846, Final residual = 0.000306656, No Iterations 2
smoothSolver:  Solving for Uy, Initial residual = 0.00381109, Final residual = 0.000285522, No Iterations 2
smoothSolver:  Solving for Uz, Initial residual = 0.00379612, Final residual = 0.000294521, No Iterations 2
GAMG:  Solving for p, Initial residual = 0.00725061, Final residual = 0.000339681, No Iterations 2
time step continuity errors : sum local = 3.57775e-09, global = 1.92683e-10, cumulative = 3.0454e-08
ExecutionTime = 70.72 s  ClockTime = 72 s

Time = 52

smoothSolver:  Solving for Ux, Initial residual = 0.0038414, Final residual = 0.000296479, No Iterations 2
smoothSolver:  Solving for Uy, Initial residual = 0.00369596, Final residual = 0.000277602, No Iterations 2
smoothSolver:  Solving for Uz, Initial residual = 0.00365703, Final residual = 0.00028423, No Iterations 2
GAMG:  Solving for p, Initial residual = 0.0069883, Final residual = 0.000323163, No Iterations 2
time step continuity errors : sum local = 3.3956e-09, global = 1.79965e-10, cumulative = 3.06339e-08
ExecutionTime = 71.99 s  ClockTime = 73 s

Time = 53

smoothSolver:  Solving for Ux, Initial residual = 0.00371178, Final residual = 0.00028673, No Iterations 2
smoothSolver:  Solving for Uy, Initial residual = 0.00358398, Final residual = 0.00026984, No Iterations 2
smoothSolver:  Solving for Uz, Initial residual = 0.00352362, Final residual = 0.000274363, No Iterations 2
GAMG:  Solving for p, Initial residual = 0.00673596, Final residual = 0.000308137, No Iterations 2
time step continuity errors : sum local = 3.23016e-09, global = 1.68049e-10, cumulative = 3.0802e-08
ExecutionTime = 73.26 s  ClockTime = 74 s

Time = 54

smoothSolver:  Solving for Ux, Initial residual = 0.00358831, Final residual = 0.000277433, No Iterations 2
smoothSolver:  Solving for Uy, Initial residual = 0.00347491, Final residual = 0.000262224, No Iterations 2
smoothSolver:  Solving for Uz, Initial residual = 0.00339707, Final residual = 0.000264907, No Iterations 2
GAMG:  Solving for p, Initial residual = 0.00649741, Final residual = 0.000294333, No Iterations 2
time step continuity errors : sum local = 3.07835e-09, global = 1.57082e-10, cumulative = 3.09591e-08
ExecutionTime = 74.51 s  ClockTime = 76 s

Time = 55

smoothSolver:  Solving for Ux, Initial residual = 0.00347119, Final residual = 0.000268542, No Iterations 2
smoothSolver:  Solving for Uy, Initial residual = 0.00336893, Final residual = 0.000254801, No Iterations 2
smoothSolver:  Solving for Uz, Initial residual = 0.00327577, Final residual = 0.000255786, No Iterations 2
GAMG:  Solving for p, Initial residual = 0.00627136, Final residual = 0.000281241, No Iterations 2
time step continuity errors : sum local = 2.93468e-09, global = 1.47174e-10, cumulative = 3.11062e-08
ExecutionTime = 75.78 s  ClockTime = 77 s

Time = 56

smoothSolver:  Solving for Ux, Initial residual = 0.00336004, Final residual = 0.00026004, No Iterations 2
smoothSolver:  Solving for Uy, Initial residual = 0.00326488, Final residual = 0.000247525, No Iterations 2
smoothSolver:  Solving for Uz, Initial residual = 0.0031601, Final residual = 0.000246972, No Iterations 2
GAMG:  Solving for p, Initial residual = 0.00605476, Final residual = 0.000268796, No Iterations 2
time step continuity errors : sum local = 2.79846e-09, global = 1.38408e-10, cumulative = 3.12446e-08
ExecutionTime = 77.06 s  ClockTime = 78 s

Time = 57

smoothSolver:  Solving for Ux, Initial residual = 0.0032538, Final residual = 0.000251966, No Iterations 2
smoothSolver:  Solving for Uy, Initial residual = 0.00316343, Final residual = 0.000240415, No Iterations 2
smoothSolver:  Solving for Uz, Initial residual = 0.0030505, Final residual = 0.000238535, No Iterations 2
GAMG:  Solving for p, Initial residual = 0.00584827, Final residual = 0.000256998, No Iterations 2
time step continuity errors : sum local = 2.66971e-09, global = 1.30612e-10, cumulative = 3.13752e-08
ExecutionTime = 78.31 s  ClockTime = 79 s

Time = 58

smoothSolver:  Solving for Ux, Initial residual = 0.0031522, Final residual = 0.000244293, No Iterations 2
smoothSolver:  Solving for Uy, Initial residual = 0.00306431, Final residual = 0.000233452, No Iterations 2
smoothSolver:  Solving for Uz, Initial residual = 0.00294639, Final residual = 0.000230468, No Iterations 2
GAMG:  Solving for p, Initial residual = 0.00564845, Final residual = 0.0002462, No Iterations 2
time step continuity errors : sum local = 2.55203e-09, global = 1.23505e-10, cumulative = 3.14988e-08
ExecutionTime = 79.61 s  ClockTime = 81 s

Time = 59

smoothSolver:  Solving for Ux, Initial residual = 0.00305545, Final residual = 0.000236956, No Iterations 2
smoothSolver:  Solving for Uy, Initial residual = 0.00296842, Final residual = 0.000226652, No Iterations 2
smoothSolver:  Solving for Uz, Initial residual = 0.00284668, Final residual = 0.000222734, No Iterations 2
GAMG:  Solving for p, Initial residual = 0.00545897, Final residual = 0.000236349, No Iterations 2
time step continuity errors : sum local = 2.44477e-09, global = 1.16883e-10, cumulative = 3.16156e-08
ExecutionTime = 80.9 s  ClockTime = 82 s

Time = 60

smoothSolver:  Solving for Ux, Initial residual = 0.00296277, Final residual = 0.000229947, No Iterations 2
smoothSolver:  Solving for Uy, Initial residual = 0.00287536, Final residual = 0.000220013, No Iterations 2
smoothSolver:  Solving for Uz, Initial residual = 0.00275123, Final residual = 0.000215294, No Iterations 2
GAMG:  Solving for p, Initial residual = 0.00527773, Final residual = 0.00022662, No Iterations 2
time step continuity errors : sum local = 2.33935e-09, global = 1.10879e-10, cumulative = 3.17265e-08
ExecutionTime = 82.19 s  ClockTime = 83 s

Time = 61

smoothSolver:  Solving for Ux, Initial residual = 0.00287439, Final residual = 0.00022327, No Iterations 2
smoothSolver:  Solving for Uy, Initial residual = 0.00278532, Final residual = 0.000213531, No Iterations 2
smoothSolver:  Solving for Uz, Initial residual = 0.00265995, Final residual = 0.000208154, No Iterations 2
GAMG:  Solving for p, Initial residual = 0.00510462, Final residual = 0.000218356, No Iterations 2
time step continuity errors : sum local = 2.24955e-09, global = 1.04543e-10, cumulative = 3.18311e-08
ExecutionTime = 83.48 s  ClockTime = 84 s

Time = 62

smoothSolver:  Solving for Ux, Initial residual = 0.0027897, Final residual = 0.000216872, No Iterations 2
smoothSolver:  Solving for Uy, Initial residual = 0.00269799, Final residual = 0.000207153, No Iterations 2
smoothSolver:  Solving for Uz, Initial residual = 0.0025732, Final residual = 0.000201321, No Iterations 2
GAMG:  Solving for p, Initial residual = 0.00494001, Final residual = 0.000210856, No Iterations 2
time step continuity errors : sum local = 2.16807e-09, global = 9.83974e-11, cumulative = 3.19295e-08
ExecutionTime = 84.78 s  ClockTime = 86 s

Time = 63

smoothSolver:  Solving for Ux, Initial residual = 0.00270805, Final residual = 0.000210746, No Iterations 2
smoothSolver:  Solving for Uy, Initial residual = 0.00261315, Final residual = 0.000200905, No Iterations 2
smoothSolver:  Solving for Uz, Initial residual = 0.00249067, Final residual = 0.000194773, No Iterations 2
GAMG:  Solving for p, Initial residual = 0.00478084, Final residual = 0.000203962, No Iterations 2
time step continuity errors : sum local = 2.0933e-09, global = 9.25675e-11, cumulative = 3.2022e-08
ExecutionTime = 86.04 s  ClockTime = 87 s

Time = 64

smoothSolver:  Solving for Ux, Initial residual = 0.00262956, Final residual = 0.000204836, No Iterations 2
smoothSolver:  Solving for Uy, Initial residual = 0.00253106, Final residual = 0.000194762, No Iterations 2
smoothSolver:  Solving for Uz, Initial residual = 0.0024118, Final residual = 0.000188522, No Iterations 2
GAMG:  Solving for p, Initial residual = 0.00463127, Final residual = 0.000197489, No Iterations 2
time step continuity errors : sum local = 2.02326e-09, global = 8.70851e-11, cumulative = 3.21091e-08
ExecutionTime = 87.3 s  ClockTime = 88 s

Time = 65

smoothSolver:  Solving for Ux, Initial residual = 0.00255482, Final residual = 0.000199158, No Iterations 2
smoothSolver:  Solving for Uy, Initial residual = 0.00245128, Final residual = 0.000188739, No Iterations 2
smoothSolver:  Solving for Uz, Initial residual = 0.00233619, Final residual = 0.000182579, No Iterations 2
GAMG:  Solving for p, Initial residual = 0.0044879, Final residual = 0.00019137, No Iterations 2
time step continuity errors : sum local = 1.95726e-09, global = 8.21377e-11, cumulative = 3.21912e-08
ExecutionTime = 88.6 s  ClockTime = 90 s

Time = 66

smoothSolver:  Solving for Ux, Initial residual = 0.00248312, Final residual = 0.000193669, No Iterations 2
smoothSolver:  Solving for Uy, Initial residual = 0.00237413, Final residual = 0.000182838, No Iterations 2
smoothSolver:  Solving for Uz, Initial residual = 0.00226408, Final residual = 0.000176891, No Iterations 2
GAMG:  Solving for p, Initial residual = 0.00434791, Final residual = 0.000185628, No Iterations 2
time step continuity errors : sum local = 1.89544e-09, global = 7.77152e-11, cumulative = 3.2269e-08
ExecutionTime = 89.86 s  ClockTime = 91 s

Time = 67

smoothSolver:  Solving for Ux, Initial residual = 0.00241434, Final residual = 0.000188356, No Iterations 2
smoothSolver:  Solving for Uy, Initial residual = 0.00229908, Final residual = 0.000177081, No Iterations 2
smoothSolver:  Solving for Uz, Initial residual = 0.00219519, Final residual = 0.000171458, No Iterations 2
GAMG:  Solving for p, Initial residual = 0.00421062, Final residual = 0.000180215, No Iterations 2
time step continuity errors : sum local = 1.8372e-09, global = 7.37822e-11, cumulative = 3.23427e-08
ExecutionTime = 91.1 s  ClockTime = 92 s

Time = 68

smoothSolver:  Solving for Ux, Initial residual = 0.0023484, Final residual = 0.000183215, No Iterations 2
smoothSolver:  Solving for Uy, Initial residual = 0.00222635, Final residual = 0.000171479, No Iterations 2
smoothSolver:  Solving for Uz, Initial residual = 0.00212934, Final residual = 0.000166252, No Iterations 2
GAMG:  Solving for p, Initial residual = 0.00407762, Final residual = 0.000176169, No Iterations 2
time step continuity errors : sum local = 1.79315e-09, global = 7.05499e-11, cumulative = 3.24133e-08
ExecutionTime = 92.39 s  ClockTime = 93 s

Time = 69

smoothSolver:  Solving for Ux, Initial residual = 0.00228506, Final residual = 0.000178246, No Iterations 2
smoothSolver:  Solving for Uy, Initial residual = 0.00215577, Final residual = 0.000166031, No Iterations 2
smoothSolver:  Solving for Uz, Initial residual = 0.00206588, Final residual = 0.0001613, No Iterations 2
GAMG:  Solving for p, Initial residual = 0.00394899, Final residual = 0.000171527, No Iterations 2
time step continuity errors : sum local = 1.7433e-09, global = 6.79393e-11, cumulative = 3.24812e-08
ExecutionTime = 93.65 s  ClockTime = 95 s

Time = 70

smoothSolver:  Solving for Ux, Initial residual = 0.00222468, Final residual = 0.00017349, No Iterations 2
smoothSolver:  Solving for Uy, Initial residual = 0.00208756, Final residual = 0.000160735, No Iterations 2
smoothSolver:  Solving for Uz, Initial residual = 0.00200481, Final residual = 0.000156598, No Iterations 2
GAMG:  Solving for p, Initial residual = 0.00382706, Final residual = 0.000166933, No Iterations 2
time step continuity errors : sum local = 1.69415e-09, global = 6.56142e-11, cumulative = 3.25468e-08
ExecutionTime = 94.93 s  ClockTime = 96 s

Time = 71

smoothSolver:  Solving for Ux, Initial residual = 0.0021668, Final residual = 0.000168949, No Iterations 2
smoothSolver:  Solving for Uy, Initial residual = 0.00202182, Final residual = 0.000155615, No Iterations 2
smoothSolver:  Solving for Uz, Initial residual = 0.00194609, Final residual = 0.000152104, No Iterations 2
GAMG:  Solving for p, Initial residual = 0.00371182, Final residual = 0.000162533, No Iterations 2
time step continuity errors : sum local = 1.64715e-09, global = 6.35899e-11, cumulative = 3.26104e-08
ExecutionTime = 96.21 s  ClockTime = 97 s

Time = 72

smoothSolver:  Solving for Ux, Initial residual = 0.00211128, Final residual = 0.000164615, No Iterations 2
smoothSolver:  Solving for Uy, Initial residual = 0.0019583, Final residual = 0.00015066, No Iterations 2
smoothSolver:  Solving for Uz, Initial residual = 0.00188966, Final residual = 0.000147824, No Iterations 2
GAMG:  Solving for p, Initial residual = 0.00360404, Final residual = 0.000158297, No Iterations 2
time step continuity errors : sum local = 1.60198e-09, global = 6.17727e-11, cumulative = 3.26722e-08
ExecutionTime = 97.46 s  ClockTime = 98 s

Time = 73

smoothSolver:  Solving for Ux, Initial residual = 0.00205852, Final residual = 0.000160468, No Iterations 2
smoothSolver:  Solving for Uy, Initial residual = 0.00189726, Final residual = 0.000145882, No Iterations 2
smoothSolver:  Solving for Uz, Initial residual = 0.00183535, Final residual = 0.000143737, No Iterations 2
GAMG:  Solving for p, Initial residual = 0.00350292, Final residual = 0.000154177, No Iterations 2
time step continuity errors : sum local = 1.55814e-09, global = 6.01034e-11, cumulative = 3.27323e-08
ExecutionTime = 98.71 s  ClockTime = 100 s

Time = 74

smoothSolver:  Solving for Ux, Initial residual = 0.00200782, Final residual = 0.000156479, No Iterations 2
smoothSolver:  Solving for Uy, Initial residual = 0.00183846, Final residual = 0.000141311, No Iterations 2
smoothSolver:  Solving for Uz, Initial residual = 0.00178325, Final residual = 0.00013984, No Iterations 2
GAMG:  Solving for p, Initial residual = 0.00340603, Final residual = 0.000150148, No Iterations 2
time step continuity errors : sum local = 1.51536e-09, global = 5.85396e-11, cumulative = 3.27909e-08
ExecutionTime = 99.97 s  ClockTime = 101 s

Time = 75

smoothSolver:  Solving for Ux, Initial residual = 0.00195862, Final residual = 0.000152665, No Iterations 2
smoothSolver:  Solving for Uy, Initial residual = 0.00178192, Final residual = 0.000136936, No Iterations 2
smoothSolver:  Solving for Uz, Initial residual = 0.00173307, Final residual = 0.000136135, No Iterations 2
GAMG:  Solving for p, Initial residual = 0.0033157, Final residual = 0.000146188, No Iterations 2
time step continuity errors : sum local = 1.47342e-09, global = 5.70842e-11, cumulative = 3.28479e-08
ExecutionTime = 101.34 s  ClockTime = 102 s

Time = 76

smoothSolver:  Solving for Ux, Initial residual = 0.00191139, Final residual = 0.000149032, No Iterations 2
smoothSolver:  Solving for Uy, Initial residual = 0.00172772, Final residual = 0.000132755, No Iterations 2
smoothSolver:  Solving for Uz, Initial residual = 0.00168524, Final residual = 0.000132625, No Iterations 2
GAMG:  Solving for p, Initial residual = 0.00322962, Final residual = 0.000142312, No Iterations 2
time step continuity errors : sum local = 1.43251e-09, global = 5.56429e-11, cumulative = 3.29036e-08
ExecutionTime = 102.63 s  ClockTime = 104 s

Time = 77

smoothSolver:  Solving for Ux, Initial residual = 0.00186619, Final residual = 0.000145578, No Iterations 2
smoothSolver:  Solving for Uy, Initial residual = 0.00167571, Final residual = 0.000128774, No Iterations 2
smoothSolver:  Solving for Uz, Initial residual = 0.0016395, Final residual = 0.000129296, No Iterations 2
GAMG:  Solving for p, Initial residual = 0.00314508, Final residual = 0.000138517, No Iterations 2
time step continuity errors : sum local = 1.39265e-09, global = 5.41922e-11, cumulative = 3.29578e-08
ExecutionTime = 103.91 s  ClockTime = 105 s

Time = 78

smoothSolver:  Solving for Ux, Initial residual = 0.00182309, Final residual = 0.000142316, No Iterations 2
smoothSolver:  Solving for Uy, Initial residual = 0.00162589, Final residual = 0.000124983, No Iterations 2
smoothSolver:  Solving for Uz, Initial residual = 0.00159566, Final residual = 0.000126131, No Iterations 2
GAMG:  Solving for p, Initial residual = 0.00306243, Final residual = 0.000134783, No Iterations 2
time step continuity errors : sum local = 1.35356e-09, global = 5.27465e-11, cumulative = 3.30105e-08
ExecutionTime = 105.16 s  ClockTime = 106 s

Time = 79

smoothSolver:  Solving for Ux, Initial residual = 0.00178184, Final residual = 0.000139235, No Iterations 2
smoothSolver:  Solving for Uy, Initial residual = 0.00157805, Final residual = 0.000121374, No Iterations 2
smoothSolver:  Solving for Uz, Initial residual = 0.00155345, Final residual = 0.000123133, No Iterations 2
GAMG:  Solving for p, Initial residual = 0.00298178, Final residual = 0.000131075, No Iterations 2
time step continuity errors : sum local = 1.31489e-09, global = 5.13391e-11, cumulative = 3.30619e-08
ExecutionTime = 106.58 s  ClockTime = 108 s

Time = 80

smoothSolver:  Solving for Ux, Initial residual = 0.00174225, Final residual = 0.000136301, No Iterations 2
smoothSolver:  Solving for Uy, Initial residual = 0.00153217, Final residual = 0.000117937, No Iterations 2
smoothSolver:  Solving for Uz, Initial residual = 0.001513, Final residual = 0.000120277, No Iterations 2
GAMG:  Solving for p, Initial residual = 0.00290217, Final residual = 0.000127343, No Iterations 2
time step continuity errors : sum local = 1.27612e-09, global = 5.01046e-11, cumulative = 3.3112e-08
ExecutionTime = 107.92 s  ClockTime = 109 s

Time = 81

smoothSolver:  Solving for Ux, Initial residual = 0.00170431, Final residual = 0.000133509, No Iterations 2
smoothSolver:  Solving for Uy, Initial residual = 0.00148813, Final residual = 0.000114665, No Iterations 2
smoothSolver:  Solving for Uz, Initial residual = 0.00147419, Final residual = 0.000117551, No Iterations 2
GAMG:  Solving for p, Initial residual = 0.00282421, Final residual = 0.000123604, No Iterations 2
time step continuity errors : sum local = 1.23745e-09, global = 4.91663e-11, cumulative = 3.31611e-08
ExecutionTime = 109.27 s  ClockTime = 110 s

Time = 82

smoothSolver:  Solving for Ux, Initial residual = 0.00166765, Final residual = 0.000130844, No Iterations 2
smoothSolver:  Solving for Uy, Initial residual = 0.00144605, Final residual = 0.000111547, No Iterations 2
smoothSolver:  Solving for Uz, Initial residual = 0.00143683, Final residual = 0.000114957, No Iterations 2
GAMG:  Solving for p, Initial residual = 0.0027483, Final residual = 0.000119866, No Iterations 2
time step continuity errors : sum local = 1.19892e-09, global = 4.86415e-11, cumulative = 3.32098e-08
ExecutionTime = 110.55 s  ClockTime = 112 s

Time = 83

smoothSolver:  Solving for Ux, Initial residual = 0.00163244, Final residual = 0.000128303, No Iterations 2
smoothSolver:  Solving for Uy, Initial residual = 0.00140548, Final residual = 0.000108587, No Iterations 2
smoothSolver:  Solving for Uz, Initial residual = 0.00140083, Final residual = 0.000112485, No Iterations 2
GAMG:  Solving for p, Initial residual = 0.00267371, Final residual = 0.000116168, No Iterations 2
time step continuity errors : sum local = 1.16089e-09, global = 4.86423e-11, cumulative = 3.32584e-08
ExecutionTime = 111.87 s  ClockTime = 113 s

Time = 84

smoothSolver:  Solving for Ux, Initial residual = 0.00159832, Final residual = 0.000125854, No Iterations 2
smoothSolver:  Solving for Uy, Initial residual = 0.0013665, Final residual = 0.000105769, No Iterations 2
smoothSolver:  Solving for Uz, Initial residual = 0.00136622, Final residual = 0.000110131, No Iterations 2
GAMG:  Solving for p, Initial residual = 0.00259996, Final residual = 0.000112513, No Iterations 2
time step continuity errors : sum local = 1.12337e-09, global = 4.92244e-11, cumulative = 3.33076e-08
ExecutionTime = 113.25 s  ClockTime = 114 s

Time = 85

smoothSolver:  Solving for Ux, Initial residual = 0.00156545, Final residual = 0.000123489, No Iterations 2
smoothSolver:  Solving for Uy, Initial residual = 0.00132908, Final residual = 0.000103087, No Iterations 2
smoothSolver:  Solving for Uz, Initial residual = 0.00133303, Final residual = 0.000107889, No Iterations 2
GAMG:  Solving for p, Initial residual = 0.00252719, Final residual = 0.000108908, No Iterations 2
time step continuity errors : sum local = 1.08645e-09, global = 5.03307e-11, cumulative = 3.3358e-08
ExecutionTime = 114.62 s  ClockTime = 116 s

Time = 86

smoothSolver:  Solving for Ux, Initial residual = 0.0015334, Final residual = 0.000121195, No Iterations 2
smoothSolver:  Solving for Uy, Initial residual = 0.00129316, Final residual = 0.00010052, No Iterations 2
smoothSolver:  Solving for Uz, Initial residual = 0.00130119, Final residual = 0.000105739, No Iterations 2
GAMG:  Solving for p, Initial residual = 0.00245631, Final residual = 0.00010539, No Iterations 2
time step continuity errors : sum local = 1.05048e-09, global = 5.19245e-11, cumulative = 3.34099e-08
ExecutionTime = 115.92 s  ClockTime = 117 s

Time = 87

smoothSolver:  Solving for Ux, Initial residual = 0.00150223, Final residual = 0.000118966, No Iterations 2
smoothSolver:  Solving for Uy, Initial residual = 0.00125874, Final residual = 9.80599e-05, No Iterations 2
smoothSolver:  Solving for Uz, Initial residual = 0.00127063, Final residual = 0.000103666, No Iterations 2
GAMG:  Solving for p, Initial residual = 0.00238803, Final residual = 0.000102075, No Iterations 2
time step continuity errors : sum local = 1.0166e-09, global = 5.38892e-11, cumulative = 3.34638e-08
ExecutionTime = 117.29 s  ClockTime = 118 s

Time = 88

smoothSolver:  Solving for Ux, Initial residual = 0.00147168, Final residual = 0.000116815, No Iterations 2
smoothSolver:  Solving for Uy, Initial residual = 0.00122572, Final residual = 9.57026e-05, No Iterations 2
smoothSolver:  Solving for Uz, Initial residual = 0.00124132, Final residual = 0.000101664, No Iterations 2
GAMG:  Solving for p, Initial residual = 0.00232182, Final residual = 9.90658e-05, No Iterations 2
time step continuity errors : sum local = 9.85829e-10, global = 5.61099e-11, cumulative = 3.35199e-08
ExecutionTime = 118.71 s  ClockTime = 120 s

Time = 89

smoothSolver:  Solving for Ux, Initial residual = 0.00144201, Final residual = 0.000114744, No Iterations 2
smoothSolver:  Solving for Uy, Initial residual = 0.00119406, Final residual = 9.34359e-05, No Iterations 2
smoothSolver:  Solving for Uz, Initial residual = 0.00121323, Final residual = 9.97182e-05, No Iterations 2
GAMG:  Solving for p, Initial residual = 0.00225808, Final residual = 9.63376e-05, No Iterations 2
time step continuity errors : sum local = 9.57908e-10, global = 5.84525e-11, cumulative = 3.35783e-08
ExecutionTime = 120.02 s  ClockTime = 121 s

Time = 90

smoothSolver:  Solving for Ux, Initial residual = 0.00141331, Final residual = 0.000112745, No Iterations 2
smoothSolver:  Solving for Uy, Initial residual = 0.00116368, Final residual = 9.12524e-05, No Iterations 2
smoothSolver:  Solving for Uz, Initial residual = 0.00118631, Final residual = 9.78173e-05, No Iterations 2
GAMG:  Solving for p, Initial residual = 0.0021966, Final residual = 9.39373e-05, No Iterations 2
time step continuity errors : sum local = 9.33294e-10, global = 6.07757e-11, cumulative = 3.36391e-08
ExecutionTime = 121.28 s  ClockTime = 122 s

Time = 91

smoothSolver:  Solving for Ux, Initial residual = 0.00138546, Final residual = 0.000110808, No Iterations 2
smoothSolver:  Solving for Uy, Initial residual = 0.00113423, Final residual = 8.91482e-05, No Iterations 2
smoothSolver:  Solving for Uz, Initial residual = 0.00116062, Final residual = 9.59496e-05, No Iterations 2
GAMG:  Solving for p, Initial residual = 0.00213732, Final residual = 9.18597e-05, No Iterations 2
time step continuity errors : sum local = 9.11922e-10, global = 6.30205e-11, cumulative = 3.37021e-08
ExecutionTime = 122.52 s  ClockTime = 124 s

Time = 92

smoothSolver:  Solving for Ux, Initial residual = 0.00135838, Final residual = 0.000108918, No Iterations 2
smoothSolver:  Solving for Uy, Initial residual = 0.00110598, Final residual = 8.71131e-05, No Iterations 2
smoothSolver:  Solving for Uz, Initial residual = 0.00113574, Final residual = 9.41151e-05, No Iterations 2
GAMG:  Solving for p, Initial residual = 0.00208136, Final residual = 9.00481e-05, No Iterations 2
time step continuity errors : sum local = 8.93219e-10, global = 6.51851e-11, cumulative = 3.37673e-08
ExecutionTime = 123.82 s  ClockTime = 125 s

Time = 93

smoothSolver:  Solving for Ux, Initial residual = 0.00133191, Final residual = 0.000107066, No Iterations 2
smoothSolver:  Solving for Uy, Initial residual = 0.00107847, Final residual = 8.51386e-05, No Iterations 2
smoothSolver:  Solving for Uz, Initial residual = 0.00111165, Final residual = 9.23079e-05, No Iterations 2
GAMG:  Solving for p, Initial residual = 0.00202854, Final residual = 8.84742e-05, No Iterations 2
time step continuity errors : sum local = 8.76897e-10, global = 6.71804e-11, cumulative = 3.38345e-08
ExecutionTime = 125.07 s  ClockTime = 126 s

Time = 94

smoothSolver:  Solving for Ux, Initial residual = 0.00130614, Final residual = 0.000105239, No Iterations 2
smoothSolver:  Solving for Uy, Initial residual = 0.00105179, Final residual = 8.32136e-05, No Iterations 2
smoothSolver:  Solving for Uz, Initial residual = 0.00108826, Final residual = 9.05172e-05, No Iterations 2
GAMG:  Solving for p, Initial residual = 0.00197806, Final residual = 8.69788e-05, No Iterations 2
time step continuity errors : sum local = 8.6138e-10, global = 6.88057e-11, cumulative = 3.39033e-08
ExecutionTime = 126.32 s  ClockTime = 127 s

Time = 95

smoothSolver:  Solving for Ux, Initial residual = 0.0012811, Final residual = 0.000103434, No Iterations 2
smoothSolver:  Solving for Uy, Initial residual = 0.00102566, Final residual = 8.13266e-05, No Iterations 2
smoothSolver:  Solving for Uz, Initial residual = 0.00106543, Final residual = 8.87328e-05, No Iterations 2
GAMG:  Solving for p, Initial residual = 0.00192913, Final residual = 8.56894e-05, No Iterations 2
time step continuity errors : sum local = 8.47922e-10, global = 7.02388e-11, cumulative = 3.39735e-08
ExecutionTime = 127.58 s  ClockTime = 129 s

Time = 96

smoothSolver:  Solving for Ux, Initial residual = 0.00125651, Final residual = 0.000101632, No Iterations 2
smoothSolver:  Solving for Uy, Initial residual = 0.0010001, Final residual = 7.94733e-05, No Iterations 2
smoothSolver:  Solving for Uz, Initial residual = 0.00104302, Final residual = 8.69546e-05, No Iterations 2
GAMG:  Solving for p, Initial residual = 0.00188148, Final residual = 8.45317e-05, No Iterations 2
time step continuity errors : sum local = 8.35698e-10, global = 7.11091e-11, cumulative = 3.40447e-08
ExecutionTime = 128.8 s  ClockTime = 130 s

Time = 97

smoothSolver:  Solving for Ux, Initial residual = 0.00123233, Final residual = 9.98358e-05, No Iterations 2
smoothSolver:  Solving for Uy, Initial residual = 0.000975021, Final residual = 7.76483e-05, No Iterations 2
smoothSolver:  Solving for Uz, Initial residual = 0.00102092, Final residual = 8.51882e-05, No Iterations 2
GAMG:  Solving for p, Initial residual = 0.00183467, Final residual = 8.33933e-05, No Iterations 2
time step continuity errors : sum local = 8.23701e-10, global = 7.16114e-11, cumulative = 3.41163e-08
ExecutionTime = 130.02 s  ClockTime = 131 s

Time = 98

smoothSolver:  Solving for Ux, Initial residual = 0.00120853, Final residual = 9.8042e-05, No Iterations 2
smoothSolver:  Solving for Uy, Initial residual = 0.000950359, Final residual = 7.58406e-05, No Iterations 2
smoothSolver:  Solving for Uz, Initial residual = 0.000999161, Final residual = 8.34361e-05, No Iterations 2
GAMG:  Solving for p, Initial residual = 0.001789, Final residual = 8.22492e-05, No Iterations 2
time step continuity errors : sum local = 8.11685e-10, global = 7.1756e-11, cumulative = 3.4188e-08
ExecutionTime = 131.25 s  ClockTime = 132 s

Time = 99

smoothSolver:  Solving for Ux, Initial residual = 0.00118502, Final residual = 9.62451e-05, No Iterations 2
smoothSolver:  Solving for Uy, Initial residual = 0.000926103, Final residual = 7.40474e-05, No Iterations 2
smoothSolver:  Solving for Uz, Initial residual = 0.000977743, Final residual = 8.1709e-05, No Iterations 2
GAMG:  Solving for p, Initial residual = 0.00174384, Final residual = 8.06883e-05, No Iterations 2
time step continuity errors : sum local = 7.95597e-10, global = 7.13531e-11, cumulative = 3.42594e-08
ExecutionTime = 132.47 s  ClockTime = 133 s

Time = 100

smoothSolver:  Solving for Ux, Initial residual = 0.00116187, Final residual = 9.44504e-05, No Iterations 2
smoothSolver:  Solving for Uy, Initial residual = 0.000902281, Final residual = 7.2269e-05, No Iterations 2
smoothSolver:  Solving for Uz, Initial residual = 0.000956758, Final residual = 8.00074e-05, No Iterations 2
GAMG:  Solving for p, Initial residual = 0.0016993, Final residual = 7.934e-05, No Iterations 2
time step continuity errors : sum local = 7.81653e-10, global = 7.09335e-11, cumulative = 3.43303e-08
ExecutionTime = 135.14 s  ClockTime = 137 s

Time = 101

smoothSolver:  Solving for Ux, Initial residual = 0.00113893, Final residual = 9.26499e-05, No Iterations 2
smoothSolver:  Solving for Uy, Initial residual = 0.000878818, Final residual = 7.05009e-05, No Iterations 2
smoothSolver:  Solving for Uz, Initial residual = 0.000936158, Final residual = 7.83278e-05, No Iterations 2
GAMG:  Solving for p, Initial residual = 0.00165585, Final residual = 7.80588e-05, No Iterations 2
time step continuity errors : sum local = 7.68424e-10, global = 7.02538e-11, cumulative = 3.44006e-08
ExecutionTime = 136.63 s  ClockTime = 138 s

Time = 102

smoothSolver:  Solving for Ux, Initial residual = 0.00111613, Final residual = 9.08473e-05, No Iterations 2
smoothSolver:  Solving for Uy, Initial residual = 0.000855659, Final residual = 6.87451e-05, No Iterations 2
smoothSolver:  Solving for Uz, Initial residual = 0.000915962, Final residual = 7.66724e-05, No Iterations 2
GAMG:  Solving for p, Initial residual = 0.00161375, Final residual = 7.67583e-05, No Iterations 2
time step continuity errors : sum local = 7.55041e-10, global = 6.92884e-11, cumulative = 3.44699e-08
ExecutionTime = 138.07 s  ClockTime = 140 s

Time = 103

smoothSolver:  Solving for Ux, Initial residual = 0.00109347, Final residual = 8.90522e-05, No Iterations 2
smoothSolver:  Solving for Uy, Initial residual = 0.000832836, Final residual = 6.70038e-05, No Iterations 2
smoothSolver:  Solving for Uz, Initial residual = 0.000896168, Final residual = 7.5042e-05, No Iterations 2
GAMG:  Solving for p, Initial residual = 0.00157266, Final residual = 7.54101e-05, No Iterations 2
time step continuity errors : sum local = 7.41226e-10, global = 6.80597e-11, cumulative = 3.45379e-08
ExecutionTime = 139.33 s  ClockTime = 141 s

Time = 104

smoothSolver:  Solving for Ux, Initial residual = 0.00107086, Final residual = 8.72758e-05, No Iterations 2
smoothSolver:  Solving for Uy, Initial residual = 0.000810397, Final residual = 6.52779e-05, No Iterations 2
smoothSolver:  Solving for Uz, Initial residual = 0.000876841, Final residual = 7.3434e-05, No Iterations 2
GAMG:  Solving for p, Initial residual = 0.00153277, Final residual = 7.40296e-05, No Iterations 2
time step continuity errors : sum local = 7.27132e-10, global = 6.66175e-11, cumulative = 3.46045e-08
ExecutionTime = 140.76 s  ClockTime = 142 s

Time = 105

smoothSolver:  Solving for Ux, Initial residual = 0.00104842, Final residual = 8.55181e-05, No Iterations 2
smoothSolver:  Solving for Uy, Initial residual = 0.000788346, Final residual = 6.35727e-05, No Iterations 2
smoothSolver:  Solving for Uz, Initial residual = 0.00085801, Final residual = 7.18475e-05, No Iterations 2
GAMG:  Solving for p, Initial residual = 0.00149383, Final residual = 7.263e-05, No Iterations 2
time step continuity errors : sum local = 7.12864e-10, global = 6.49698e-11, cumulative = 3.46695e-08
ExecutionTime = 142.14 s  ClockTime = 144 s

Time = 106

smoothSolver:  Solving for Ux, Initial residual = 0.0010263, Final residual = 8.37868e-05, No Iterations 2
smoothSolver:  Solving for Uy, Initial residual = 0.000766764, Final residual = 6.18919e-05, No Iterations 2
smoothSolver:  Solving for Uz, Initial residual = 0.000839646, Final residual = 7.0283e-05, No Iterations 2
GAMG:  Solving for p, Initial residual = 0.00145613, Final residual = 7.12166e-05, No Iterations 2
time step continuity errors : sum local = 6.98492e-10, global = 6.32256e-11, cumulative = 3.47327e-08
ExecutionTime = 143.47 s  ClockTime = 145 s

Time = 107

smoothSolver:  Solving for Ux, Initial residual = 0.00100448, Final residual = 8.20873e-05, No Iterations 2
smoothSolver:  Solving for Uy, Initial residual = 0.000745655, Final residual = 6.02363e-05, No Iterations 2
smoothSolver:  Solving for Uz, Initial residual = 0.000821774, Final residual = 6.87396e-05, No Iterations 2
GAMG:  Solving for p, Initial residual = 0.00141971, Final residual = 6.98071e-05, No Iterations 2
time step continuity errors : sum local = 6.84209e-10, global = 6.14689e-11, cumulative = 3.47942e-08
ExecutionTime = 145.08 s  ClockTime = 147 s

Time = 108

smoothSolver:  Solving for Ux, Initial residual = 0.000983034, Final residual = 8.04226e-05, No Iterations 2
smoothSolver:  Solving for Uy, Initial residual = 0.00072504, Final residual = 5.8609e-05, No Iterations 2
smoothSolver:  Solving for Uz, Initial residual = 0.000804315, Final residual = 6.72192e-05, No Iterations 2
GAMG:  Solving for p, Initial residual = 0.00138463, Final residual = 6.84015e-05, No Iterations 2
time step continuity errors : sum local = 6.70004e-10, global = 5.97262e-11, cumulative = 3.48539e-08
ExecutionTime = 146.32 s  ClockTime = 148 s

Time = 109

smoothSolver:  Solving for Ux, Initial residual = 0.000962039, Final residual = 7.87831e-05, No Iterations 2
smoothSolver:  Solving for Uy, Initial residual = 0.000704936, Final residual = 5.70115e-05, No Iterations 2
smoothSolver:  Solving for Uz, Initial residual = 0.000787189, Final residual = 6.5725e-05, No Iterations 2
GAMG:  Solving for p, Initial residual = 0.00135083, Final residual = 6.6997e-05, No Iterations 2
time step continuity errors : sum local = 6.55831e-10, global = 5.79869e-11, cumulative = 3.49119e-08
ExecutionTime = 147.56 s  ClockTime = 149 s

Time = 110

smoothSolver:  Solving for Ux, Initial residual = 0.000941529, Final residual = 7.71727e-05, No Iterations 2
smoothSolver:  Solving for Uy, Initial residual = 0.000685338, Final residual = 5.54457e-05, No Iterations 2
smoothSolver:  Solving for Uz, Initial residual = 0.000770378, Final residual = 6.42563e-05, No Iterations 2
GAMG:  Solving for p, Initial residual = 0.00131827, Final residual = 6.55973e-05, No Iterations 2
time step continuity errors : sum local = 6.41744e-10, global = 5.63078e-11, cumulative = 3.49682e-08
ExecutionTime = 148.8 s  ClockTime = 150 s

Time = 111

smoothSolver:  Solving for Ux, Initial residual = 0.000921464, Final residual = 7.55906e-05, No Iterations 2
smoothSolver:  Solving for Uy, Initial residual = 0.000666281, Final residual = 5.39124e-05, No Iterations 2
smoothSolver:  Solving for Uz, Initial residual = 0.000753889, Final residual = 6.28123e-05, No Iterations 2
GAMG:  Solving for p, Initial residual = 0.00128653, Final residual = 6.42126e-05, No Iterations 2
time step continuity errors : sum local = 6.27835e-10, global = 5.46361e-11, cumulative = 3.50229e-08
ExecutionTime = 150.01 s  ClockTime = 152 s

Time = 112

smoothSolver:  Solving for Ux, Initial residual = 0.000901792, Final residual = 7.4035e-05, No Iterations 2
smoothSolver:  Solving for Uy, Initial residual = 0.000647706, Final residual = 5.24135e-05, No Iterations 2
smoothSolver:  Solving for Uz, Initial residual = 0.000737703, Final residual = 6.13973e-05, No Iterations 2
GAMG:  Solving for p, Initial residual = 0.00125585, Final residual = 6.28333e-05, No Iterations 2
time step continuity errors : sum local = 6.14012e-10, global = 5.29598e-11, cumulative = 3.50758e-08
ExecutionTime = 151.24 s  ClockTime = 153 s

Time = 113

smoothSolver:  Solving for Ux, Initial residual = 0.000882531, Final residual = 7.25105e-05, No Iterations 2
smoothSolver:  Solving for Uy, Initial residual = 0.00062964, Final residual = 5.0949e-05, No Iterations 2
smoothSolver:  Solving for Uz, Initial residual = 0.000721784, Final residual = 6.00153e-05, No Iterations 2
GAMG:  Solving for p, Initial residual = 0.00122612, Final residual = 6.14683e-05, No Iterations 2
time step continuity errors : sum local = 6.00352e-10, global = 5.12751e-11, cumulative = 3.51271e-08
ExecutionTime = 152.49 s  ClockTime = 154 s

Time = 114

smoothSolver:  Solving for Ux, Initial residual = 0.000863648, Final residual = 7.10135e-05, No Iterations 2
smoothSolver:  Solving for Uy, Initial residual = 0.000612106, Final residual = 4.95205e-05, No Iterations 2
smoothSolver:  Solving for Uz, Initial residual = 0.000706146, Final residual = 5.86605e-05, No Iterations 2
GAMG:  Solving for p, Initial residual = 0.001197, Final residual = 6.01257e-05, No Iterations 2
time step continuity errors : sum local = 5.86945e-10, global = 4.95907e-11, cumulative = 3.51767e-08
ExecutionTime = 153.71 s  ClockTime = 155 s

Time = 115

smoothSolver:  Solving for Ux, Initial residual = 0.000845148, Final residual = 6.95486e-05, No Iterations 2
smoothSolver:  Solving for Uy, Initial residual = 0.000595074, Final residual = 4.81302e-05, No Iterations 2
smoothSolver:  Solving for Uz, Initial residual = 0.000690798, Final residual = 5.73346e-05, No Iterations 2
GAMG:  Solving for p, Initial residual = 0.00116871, Final residual = 5.88007e-05, No Iterations 2
time step continuity errors : sum local = 5.73746e-10, global = 4.79051e-11, cumulative = 3.52246e-08
ExecutionTime = 154.93 s  ClockTime = 157 s

Time = 116

smoothSolver:  Solving for Ux, Initial residual = 0.000827072, Final residual = 6.81136e-05, No Iterations 2
smoothSolver:  Solving for Uy, Initial residual = 0.000578564, Final residual = 4.6778e-05, No Iterations 2
smoothSolver:  Solving for Uz, Initial residual = 0.000675797, Final residual = 5.60407e-05, No Iterations 2
GAMG:  Solving for p, Initial residual = 0.00114144, Final residual = 5.74954e-05, No Iterations 2
time step continuity errors : sum local = 5.60766e-10, global = 4.62143e-11, cumulative = 3.52708e-08
ExecutionTime = 156.19 s  ClockTime = 158 s

Time = 117

smoothSolver:  Solving for Ux, Initial residual = 0.000809409, Final residual = 6.67077e-05, No Iterations 2
smoothSolver:  Solving for Uy, Initial residual = 0.000562543, Final residual = 4.54622e-05, No Iterations 2
smoothSolver:  Solving for Uz, Initial residual = 0.000661153, Final residual = 5.47786e-05, No Iterations 2
GAMG:  Solving for p, Initial residual = 0.00111485, Final residual = 5.62138e-05, No Iterations 2
time step continuity errors : sum local = 5.48047e-10, global = 4.45327e-11, cumulative = 3.53153e-08
ExecutionTime = 157.41 s  ClockTime = 159 s

Time = 118

smoothSolver:  Solving for Ux, Initial residual = 0.000792165, Final residual = 6.53299e-05, No Iterations 2
smoothSolver:  Solving for Uy, Initial residual = 0.00054701, Final residual = 4.41826e-05, No Iterations 2
smoothSolver:  Solving for Uz, Initial residual = 0.000646896, Final residual = 5.35522e-05, No Iterations 2
GAMG:  Solving for p, Initial residual = 0.00108891, Final residual = 5.49632e-05, No Iterations 2
time step continuity errors : sum local = 5.35657e-10, global = 4.28685e-11, cumulative = 3.53582e-08
ExecutionTime = 158.64 s  ClockTime = 160 s

Time = 119

smoothSolver:  Solving for Ux, Initial residual = 0.000775336, Final residual = 6.39796e-05, No Iterations 2
smoothSolver:  Solving for Uy, Initial residual = 0.000531921, Final residual = 4.29382e-05, No Iterations 2
smoothSolver:  Solving for Uz, Initial residual = 0.000633025, Final residual = 5.23599e-05, No Iterations 2
GAMG:  Solving for p, Initial residual = 0.0010637, Final residual = 5.37366e-05, No Iterations 2
time step continuity errors : sum local = 5.23529e-10, global = 4.12084e-11, cumulative = 3.53994e-08
ExecutionTime = 159.88 s  ClockTime = 162 s

Time = 120

smoothSolver:  Solving for Ux, Initial residual = 0.000758889, Final residual = 6.26585e-05, No Iterations 2
smoothSolver:  Solving for Uy, Initial residual = 0.000517256, Final residual = 4.17294e-05, No Iterations 2
smoothSolver:  Solving for Uz, Initial residual = 0.00061946, Final residual = 5.11985e-05, No Iterations 2
GAMG:  Solving for p, Initial residual = 0.00103907, Final residual = 5.2528e-05, No Iterations 2
time step continuity errors : sum local = 5.11595e-10, global = 3.95334e-11, cumulative = 3.54389e-08
ExecutionTime = 161.09 s  ClockTime = 163 s

Time = 121

smoothSolver:  Solving for Ux, Initial residual = 0.000742827, Final residual = 6.13662e-05, No Iterations 2
smoothSolver:  Solving for Uy, Initial residual = 0.000502994, Final residual = 4.05542e-05, No Iterations 2
smoothSolver:  Solving for Uz, Initial residual = 0.000606178, Final residual = 5.00637e-05, No Iterations 2
GAMG:  Solving for p, Initial residual = 0.00101488, Final residual = 5.13367e-05, No Iterations 2
time step continuity errors : sum local = 4.99839e-10, global = 3.78361e-11, cumulative = 3.54768e-08
ExecutionTime = 162.32 s  ClockTime = 164 s

Time = 122

smoothSolver:  Solving for Ux, Initial residual = 0.000727136, Final residual = 6.0105e-05, No Iterations 2
smoothSolver:  Solving for Uy, Initial residual = 0.000489141, Final residual = 3.94146e-05, No Iterations 2
smoothSolver:  Solving for Uz, Initial residual = 0.000593133, Final residual = 4.89534e-05, No Iterations 2
GAMG:  Solving for p, Initial residual = 0.000991233, Final residual = 5.0156e-05, No Iterations 2
time step continuity errors : sum local = 4.88213e-10, global = 3.614e-11, cumulative = 3.55129e-08
ExecutionTime = 163.56 s  ClockTime = 165 s

Time = 123

smoothSolver:  Solving for Ux, Initial residual = 0.000711779, Final residual = 5.88736e-05, No Iterations 2
smoothSolver:  Solving for Uy, Initial residual = 0.000475702, Final residual = 3.83075e-05, No Iterations 2
smoothSolver:  Solving for Uz, Initial residual = 0.000580338, Final residual = 4.78649e-05, No Iterations 2
GAMG:  Solving for p, Initial residual = 0.000968057, Final residual = 4.89888e-05, No Iterations 2
time step continuity errors : sum local = 4.76743e-10, global = 3.44551e-11, cumulative = 3.55474e-08
ExecutionTime = 164.79 s  ClockTime = 166 s

Time = 124

smoothSolver:  Solving for Ux, Initial residual = 0.000696751, Final residual = 5.76729e-05, No Iterations 2
smoothSolver:  Solving for Uy, Initial residual = 0.000462651, Final residual = 3.72319e-05, No Iterations 2
smoothSolver:  Solving for Uz, Initial residual = 0.000567768, Final residual = 4.67982e-05, No Iterations 2
GAMG:  Solving for p, Initial residual = 0.000945345, Final residual = 4.78445e-05, No Iterations 2
time step continuity errors : sum local = 4.65512e-10, global = 3.27718e-11, cumulative = 3.55801e-08
ExecutionTime = 166.03 s  ClockTime = 168 s

Time = 125

smoothSolver:  Solving for Ux, Initial residual = 0.000682088, Final residual = 5.64992e-05, No Iterations 2
smoothSolver:  Solving for Uy, Initial residual = 0.000449947, Final residual = 3.61855e-05, No Iterations 2
smoothSolver:  Solving for Uz, Initial residual = 0.000555407, Final residual = 4.57515e-05, No Iterations 2
GAMG:  Solving for p, Initial residual = 0.000923126, Final residual = 4.67219e-05, No Iterations 2
time step continuity errors : sum local = 4.5449e-10, global = 3.10638e-11, cumulative = 3.56112e-08
ExecutionTime = 167.27 s  ClockTime = 169 s

Time = 126

smoothSolver:  Solving for Ux, Initial residual = 0.000667766, Final residual = 5.53542e-05, No Iterations 2
smoothSolver:  Solving for Uy, Initial residual = 0.000437589, Final residual = 3.51675e-05, No Iterations 2
smoothSolver:  Solving for Uz, Initial residual = 0.000543245, Final residual = 4.47233e-05, No Iterations 2
GAMG:  Solving for p, Initial residual = 0.000901338, Final residual = 4.56143e-05, No Iterations 2
time step continuity errors : sum local = 4.43636e-10, global = 2.93739e-11, cumulative = 3.56406e-08
ExecutionTime = 168.49 s  ClockTime = 170 s

Time = 127

smoothSolver:  Solving for Ux, Initial residual = 0.000653782, Final residual = 5.42378e-05, No Iterations 2
smoothSolver:  Solving for Uy, Initial residual = 0.000425556, Final residual = 3.41766e-05, No Iterations 2
smoothSolver:  Solving for Uz, Initial residual = 0.000531309, Final residual = 4.37136e-05, No Iterations 2
GAMG:  Solving for p, Initial residual = 0.000880001, Final residual = 4.4522e-05, No Iterations 2
time step continuity errors : sum local = 4.32937e-10, global = 2.77033e-11, cumulative = 3.56683e-08
ExecutionTime = 169.71 s  ClockTime = 171 s

Time = 128

smoothSolver:  Solving for Ux, Initial residual = 0.000640095, Final residual = 5.31466e-05, No Iterations 2
smoothSolver:  Solving for Uy, Initial residual = 0.000413856, Final residual = 3.32146e-05, No Iterations 2
smoothSolver:  Solving for Uz, Initial residual = 0.000519599, Final residual = 4.27207e-05, No Iterations 2
GAMG:  Solving for p, Initial residual = 0.000859062, Final residual = 4.34484e-05, No Iterations 2
time step continuity errors : sum local = 4.22429e-10, global = 2.6071e-11, cumulative = 3.56944e-08
ExecutionTime = 170.95 s  ClockTime = 173 s

Time = 129

smoothSolver:  Solving for Ux, Initial residual = 0.000626673, Final residual = 5.20778e-05, No Iterations 2
smoothSolver:  Solving for Uy, Initial residual = 0.000402466, Final residual = 3.22788e-05, No Iterations 2
smoothSolver:  Solving for Uz, Initial residual = 0.000508122, Final residual = 4.17453e-05, No Iterations 2
GAMG:  Solving for p, Initial residual = 0.000838529, Final residual = 4.23877e-05, No Iterations 2
time step continuity errors : sum local = 4.12062e-10, global = 2.44946e-11, cumulative = 3.57188e-08
ExecutionTime = 172.16 s  ClockTime = 174 s

Time = 130

smoothSolver:  Solving for Ux, Initial residual = 0.00061352, Final residual = 5.10307e-05, No Iterations 2
smoothSolver:  Solving for Uy, Initial residual = 0.000391364, Final residual = 3.13686e-05, No Iterations 2
smoothSolver:  Solving for Uz, Initial residual = 0.000496863, Final residual = 4.07873e-05, No Iterations 2
GAMG:  Solving for p, Initial residual = 0.00081828, Final residual = 4.13478e-05, No Iterations 2
time step continuity errors : sum local = 4.0191e-10, global = 2.29828e-11, cumulative = 3.57418e-08
ExecutionTime = 173.4 s  ClockTime = 175 s

Time = 131

smoothSolver:  Solving for Ux, Initial residual = 0.000600625, Final residual = 5.00022e-05, No Iterations 2
smoothSolver:  Solving for Uy, Initial residual = 0.000380539, Final residual = 3.04836e-05, No Iterations 2
smoothSolver:  Solving for Uz, Initial residual = 0.000485817, Final residual = 3.98475e-05, No Iterations 2
GAMG:  Solving for p, Initial residual = 0.000798474, Final residual = 4.03223e-05, No Iterations 2
time step continuity errors : sum local = 3.9189e-10, global = 2.15273e-11, cumulative = 3.57634e-08
ExecutionTime = 174.66 s  ClockTime = 176 s

Time = 132

smoothSolver:  Solving for Ux, Initial residual = 0.000587967, Final residual = 4.89928e-05, No Iterations 2
smoothSolver:  Solving for Uy, Initial residual = 0.000369993, Final residual = 2.9623e-05, No Iterations 2
smoothSolver:  Solving for Uz, Initial residual = 0.000474973, Final residual = 3.89269e-05, No Iterations 2
GAMG:  Solving for p, Initial residual = 0.000778981, Final residual = 3.93079e-05, No Iterations 2
time step continuity errors : sum local = 3.81991e-10, global = 2.01658e-11, cumulative = 3.57835e-08
ExecutionTime = 175.91 s  ClockTime = 178 s

Time = 133

smoothSolver:  Solving for Ux, Initial residual = 0.00057556, Final residual = 4.80028e-05, No Iterations 2
smoothSolver:  Solving for Uy, Initial residual = 0.000359713, Final residual = 2.87858e-05, No Iterations 2
smoothSolver:  Solving for Uz, Initial residual = 0.00046433, Final residual = 3.80257e-05, No Iterations 2
GAMG:  Solving for p, Initial residual = 0.000759692, Final residual = 3.83012e-05, No Iterations 2
time step continuity errors : sum local = 3.72173e-10, global = 1.88731e-11, cumulative = 3.58024e-08
ExecutionTime = 177.38 s  ClockTime = 179 s

Time = 134

smoothSolver:  Solving for Ux, Initial residual = 0.000563421, Final residual = 4.70302e-05, No Iterations 2
smoothSolver:  Solving for Uy, Initial residual = 0.000349693, Final residual = 2.79703e-05, No Iterations 2
smoothSolver:  Solving for Uz, Initial residual = 0.00045388, Final residual = 3.71432e-05, No Iterations 2
GAMG:  Solving for p, Initial residual = 0.000740665, Final residual = 3.73111e-05, No Iterations 2
[...]
GAMG:  Solving for p, Initial residual = 2.24371e-06, Final residual = 1.31008e-07, No Iterations 2
time step continuity errors : sum local = 1.2777e-12, global = 4.22297e-14, cumulative = 3.62178e-08
ExecutionTime = 530.17 s  ClockTime = 535 s

Time = 363

smoothSolver:  Solving for Ux, Initial residual = 1.66959e-06, Final residual = 1.43875e-07, No Iterations 2
smoothSolver:  Solving for Uy, Initial residual = 7.88125e-07, Final residual = 6.52421e-08, No Iterations 2
smoothSolver:  Solving for Uz, Initial residual = 1.23388e-06, Final residual = 1.03256e-07, No Iterations 2
GAMG:  Solving for p, Initial residual = 2.18884e-06, Final residual = 1.2771e-07, No Iterations 2
time step continuity errors : sum local = 1.24554e-12, global = 4.03883e-14, cumulative = 3.62178e-08
ExecutionTime = 531.6 s  ClockTime = 537 s

Time = 364

smoothSolver:  Solving for Ux, Initial residual = 1.62633e-06, Final residual = 1.401e-07, No Iterations 2
smoothSolver:  Solving for Uy, Initial residual = 7.66632e-07, Final residual = 6.34342e-08, No Iterations 2
smoothSolver:  Solving for Uz, Initial residual = 1.20233e-06, Final residual = 1.00595e-07, No Iterations 2
GAMG:  Solving for p, Initial residual = 2.13526e-06, Final residual = 1.24492e-07, No Iterations 2
time step continuity errors : sum local = 1.21415e-12, global = 3.86246e-14, cumulative = 3.62179e-08
ExecutionTime = 533.04 s  ClockTime = 538 s

Time = 365

smoothSolver:  Solving for Ux, Initial residual = 1.5842e-06, Final residual = 1.36426e-07, No Iterations 2
smoothSolver:  Solving for Uy, Initial residual = 7.45724e-07, Final residual = 6.16765e-08, No Iterations 2
smoothSolver:  Solving for Uz, Initial residual = 1.17161e-06, Final residual = 9.80064e-08, No Iterations 2
GAMG:  Solving for p, Initial residual = 2.08295e-06, Final residual = 1.21352e-07, No Iterations 2
time step continuity errors : sum local = 1.18353e-12, global = 3.69384e-14, cumulative = 3.62179e-08
ExecutionTime = 534.5 s  ClockTime = 540 s

Time = 366

smoothSolver:  Solving for Ux, Initial residual = 1.54319e-06, Final residual = 1.3285e-07, No Iterations 2
smoothSolver:  Solving for Uy, Initial residual = 7.25379e-07, Final residual = 5.99671e-08, No Iterations 2
smoothSolver:  Solving for Uz, Initial residual = 1.14171e-06, Final residual = 9.54865e-08, No Iterations 2
GAMG:  Solving for p, Initial residual = 2.0319e-06, Final residual = 1.18289e-07, No Iterations 2
time step continuity errors : sum local = 1.15366e-12, global = 3.53282e-14, cumulative = 3.62179e-08
ExecutionTime = 535.92 s  ClockTime = 541 s

Time = 367

smoothSolver:  Solving for Ux, Initial residual = 1.50327e-06, Final residual = 1.29368e-07, No Iterations 2
smoothSolver:  Solving for Uy, Initial residual = 7.05588e-07, Final residual = 5.8305e-08, No Iterations 2
smoothSolver:  Solving for Uz, Initial residual = 1.1126e-06, Final residual = 9.30334e-08, No Iterations 2
GAMG:  Solving for p, Initial residual = 1.98208e-06, Final residual = 1.15302e-07, No Iterations 2
time step continuity errors : sum local = 1.12452e-12, global = 3.3791e-14, cumulative = 3.6218e-08
ExecutionTime = 537.36 s  ClockTime = 542 s

Time = 368

smoothSolver:  Solving for Ux, Initial residual = 1.4644e-06, Final residual = 1.25976e-07, No Iterations 2
smoothSolver:  Solving for Uy, Initial residual = 6.86346e-07, Final residual = 5.66893e-08, No Iterations 2
smoothSolver:  Solving for Uz, Initial residual = 1.08426e-06, Final residual = 9.06457e-08, No Iterations 2
GAMG:  Solving for p, Initial residual = 1.93346e-06, Final residual = 1.12389e-07, No Iterations 2
time step continuity errors : sum local = 1.09611e-12, global = 3.23225e-14, cumulative = 3.6218e-08
ExecutionTime = 538.83 s  ClockTime = 544 s

Time = 369

smoothSolver:  Solving for Ux, Initial residual = 1.42657e-06, Final residual = 1.22676e-07, No Iterations 2
smoothSolver:  Solving for Uy, Initial residual = 6.67629e-07, Final residual = 5.51185e-08, No Iterations 2
smoothSolver:  Solving for Uz, Initial residual = 1.05669e-06, Final residual = 8.83228e-08, No Iterations 2
GAMG:  Solving for p, Initial residual = 1.88599e-06, Final residual = 1.09547e-07, No Iterations 2
time step continuity errors : sum local = 1.0684e-12, global = 3.0918e-14, cumulative = 3.6218e-08
ExecutionTime = 540.26 s  ClockTime = 545 s

Time = 370

smoothSolver:  Solving for Ux, Initial residual = 1.38974e-06, Final residual = 1.19465e-07, No Iterations 2
smoothSolver:  Solving for Uy, Initial residual = 6.49426e-07, Final residual = 5.35911e-08, No Iterations 2
smoothSolver:  Solving for Uz, Initial residual = 1.02985e-06, Final residual = 8.60627e-08, No Iterations 2
GAMG:  Solving for p, Initial residual = 1.83965e-06, Final residual = 1.06774e-07, No Iterations 2
time step continuity errors : sum local = 1.04135e-12, global = 2.95726e-14, cumulative = 3.62181e-08
ExecutionTime = 541.68 s  ClockTime = 547 s

Time = 371

smoothSolver:  Solving for Ux, Initial residual = 1.35389e-06, Final residual = 1.16339e-07, No Iterations 2
smoothSolver:  Solving for Uy, Initial residual = 6.31728e-07, Final residual = 5.21058e-08, No Iterations 2
smoothSolver:  Solving for Uz, Initial residual = 1.00374e-06, Final residual = 8.38634e-08, No Iterations 2
GAMG:  Solving for p, Initial residual = 1.79442e-06, Final residual = 1.04067e-07, No Iterations 2
time step continuity errors : sum local = 1.01495e-12, global = 2.82813e-14, cumulative = 3.62181e-08
ExecutionTime = 543.16 s  ClockTime = 548 s

Time = 372

smoothSolver:  Solving for Ux, Initial residual = 1.31899e-06, Final residual = 1.13298e-07, No Iterations 2
smoothSolver:  Solving for Uy, Initial residual = 6.14513e-07, Final residual = 5.06619e-08, No Iterations 2
smoothSolver:  Solving for Uz, Initial residual = 9.78329e-07, Final residual = 8.17237e-08, No Iterations 2
GAMG:  Solving for p, Initial residual = 1.75027e-06, Final residual = 1.01424e-07, No Iterations 2
time step continuity errors : sum local = 9.89175e-13, global = 2.70396e-14, cumulative = 3.62181e-08
ExecutionTime = 544.61 s  ClockTime = 550 s

Time = 373

smoothSolver:  Solving for Ux, Initial residual = 1.28501e-06, Final residual = 1.10338e-07, No Iterations 2
smoothSolver:  Solving for Uy, Initial residual = 5.97768e-07, Final residual = 4.92581e-08, No Iterations 2
smoothSolver:  Solving for Uz, Initial residual = 9.53594e-07, Final residual = 7.96423e-08, No Iterations 2
GAMG:  Solving for p, Initial residual = 1.70716e-06, Final residual = 9.88446e-08, No Iterations 2
time step continuity errors : sum local = 9.64014e-13, global = 2.58434e-14, cumulative = 3.62181e-08
ExecutionTime = 546.05 s  ClockTime = 551 s

Time = 374

smoothSolver:  Solving for Ux, Initial residual = 1.25195e-06, Final residual = 1.07459e-07, No Iterations 2
smoothSolver:  Solving for Uy, Initial residual = 5.81476e-07, Final residual = 4.78932e-08, No Iterations 2
smoothSolver:  Solving for Uz, Initial residual = 9.2952e-07, Final residual = 7.76172e-08, No Iterations 2
GAMG:  Solving for p, Initial residual = 1.66507e-06, Final residual = 9.63261e-08, No Iterations 2
time step continuity errors : sum local = 9.39452e-13, global = 2.46895e-14, cumulative = 3.62182e-08
ExecutionTime = 547.51 s  ClockTime = 553 s

Time = 375

smoothSolver:  Solving for Ux, Initial residual = 1.21976e-06, Final residual = 1.04658e-07, No Iterations 2
smoothSolver:  Solving for Uy, Initial residual = 5.65623e-07, Final residual = 4.65664e-08, No Iterations 2
smoothSolver:  Solving for Uz, Initial residual = 9.06086e-07, Final residual = 7.56476e-08, No Iterations 2
GAMG:  Solving for p, Initial residual = 1.62397e-06, Final residual = 9.38675e-08, No Iterations 2
time step continuity errors : sum local = 9.15473e-13, global = 2.35754e-14, cumulative = 3.62182e-08
ExecutionTime = 548.92 s  ClockTime = 554 s

Time = 376

smoothSolver:  Solving for Ux, Initial residual = 1.18843e-06, Final residual = 1.01933e-07, No Iterations 2
smoothSolver:  Solving for Uy, Initial residual = 5.502e-07, Final residual = 4.52773e-08, No Iterations 2
smoothSolver:  Solving for Uz, Initial residual = 8.83278e-07, Final residual = 7.37318e-08, No Iterations 2
GAMG:  Solving for p, Initial residual = 1.58385e-06, Final residual = 9.14679e-08, No Iterations 2
time step continuity errors : sum local = 8.9207e-13, global = 2.24994e-14, cumulative = 3.62182e-08
ExecutionTime = 550.34 s  ClockTime = 555 s

Time = 377

smoothSolver:  Solving for Ux, Initial residual = 1.15793e-06, Final residual = 9.92816e-08, No Iterations 2
smoothSolver:  Solving for Uy, Initial residual = 5.35196e-07, Final residual = 4.40241e-08, No Iterations 2
smoothSolver:  Solving for Uz, Initial residual = 8.61084e-07, Final residual = 7.18687e-08, No Iterations 2
GAMG:  Solving for p, Initial residual = 1.54469e-06, Final residual = 8.91262e-08, No Iterations 2
time step continuity errors : sum local = 8.69231e-13, global = 2.14603e-14, cumulative = 3.62182e-08
ExecutionTime = 551.8 s  ClockTime = 557 s

Time = 378

smoothSolver:  Solving for Ux, Initial residual = 1.12825e-06, Final residual = 9.67023e-08, No Iterations 2
smoothSolver:  Solving for Uy, Initial residual = 5.20608e-07, Final residual = 4.28058e-08, No Iterations 2
smoothSolver:  Solving for Uz, Initial residual = 8.39481e-07, Final residual = 7.00564e-08, No Iterations 2
GAMG:  Solving for p, Initial residual = 1.50645e-06, Final residual = 8.68403e-08, No Iterations 2
time step continuity errors : sum local = 8.46937e-13, global = 2.04576e-14, cumulative = 3.62182e-08
ExecutionTime = 553.22 s  ClockTime = 558 s

Time = 379

smoothSolver:  Solving for Ux, Initial residual = 1.09938e-06, Final residual = 9.41923e-08, No Iterations 2
smoothSolver:  Solving for Uy, Initial residual = 5.06421e-07, Final residual = 4.16209e-08, No Iterations 2
smoothSolver:  Solving for Uz, Initial residual = 8.18453e-07, Final residual = 6.82935e-08, No Iterations 2
GAMG:  Solving for p, Initial residual = 1.4691e-06, Final residual = 8.46092e-08, No Iterations 2
time step continuity errors : sum local = 8.25177e-13, global = 1.94909e-14, cumulative = 3.62183e-08
ExecutionTime = 554.66 s  ClockTime = 560 s

Time = 380

smoothSolver:  Solving for Ux, Initial residual = 1.07128e-06, Final residual = 9.17521e-08, No Iterations 2
smoothSolver:  Solving for Uy, Initial residual = 4.92626e-07, Final residual = 4.04694e-08, No Iterations 2
smoothSolver:  Solving for Uz, Initial residual = 7.97982e-07, Final residual = 6.65782e-08, No Iterations 2
GAMG:  Solving for p, Initial residual = 1.43265e-06, Final residual = 8.2431e-08, No Iterations 2
time step continuity errors : sum local = 8.03933e-13, global = 1.85595e-14, cumulative = 3.62183e-08
ExecutionTime = 556.11 s  ClockTime = 561 s

Time = 381

smoothSolver:  Solving for Ux, Initial residual = 1.04395e-06, Final residual = 8.93805e-08, No Iterations 2
smoothSolver:  Solving for Uy, Initial residual = 4.79212e-07, Final residual = 3.93503e-08, No Iterations 2
smoothSolver:  Solving for Uz, Initial residual = 7.78054e-07, Final residual = 6.49095e-08, No Iterations 2
GAMG:  Solving for p, Initial residual = 1.39708e-06, Final residual = 8.03043e-08, No Iterations 2
time step continuity errors : sum local = 7.83191e-13, global = 1.76638e-14, cumulative = 3.62183e-08
ExecutionTime = 557.56 s  ClockTime = 563 s

Time = 382

smoothSolver:  Solving for Ux, Initial residual = 1.01736e-06, Final residual = 8.70739e-08, No Iterations 2
smoothSolver:  Solving for Uy, Initial residual = 4.66177e-07, Final residual = 3.82627e-08, No Iterations 2
smoothSolver:  Solving for Uz, Initial residual = 7.58652e-07, Final residual = 6.32862e-08, No Iterations 2
GAMG:  Solving for p, Initial residual = 1.36237e-06, Final residual = 7.82281e-08, No Iterations 2
time step continuity errors : sum local = 7.62943e-13, global = 1.68037e-14, cumulative = 3.62183e-08
ExecutionTime = 558.99 s  ClockTime = 564 s

Time = 383

smoothSolver:  Solving for Ux, Initial residual = 9.91481e-07, Final residual = 8.48297e-08, No Iterations 2
smoothSolver:  Solving for Uy, Initial residual = 4.53511e-07, Final residual = 3.72062e-08, No Iterations 2
smoothSolver:  Solving for Uz, Initial residual = 7.39759e-07, Final residual = 6.17071e-08, No Iterations 2
GAMG:  Solving for p, Initial residual = 1.32848e-06, Final residual = 7.62013e-08, No Iterations 2
time step continuity errors : sum local = 7.43176e-13, global = 1.5979e-14, cumulative = 3.62183e-08
ExecutionTime = 560.44 s  ClockTime = 566 s

Time = 384

smoothSolver:  Solving for Ux, Initial residual = 9.66304e-07, Final residual = 8.26471e-08, No Iterations 2
smoothSolver:  Solving for Uy, Initial residual = 4.41203e-07, Final residual = 3.61796e-08, No Iterations 2
smoothSolver:  Solving for Uz, Initial residual = 7.21364e-07, Final residual = 6.01708e-08, No Iterations 2
GAMG:  Solving for p, Initial residual = 1.29541e-06, Final residual = 7.42228e-08, No Iterations 2
time step continuity errors : sum local = 7.23879e-13, global = 1.51891e-14, cumulative = 3.62183e-08
ExecutionTime = 561.87 s  ClockTime = 567 s

Time = 385

smoothSolver:  Solving for Ux, Initial residual = 9.41814e-07, Final residual = 8.05234e-08, No Iterations 2
smoothSolver:  Solving for Uy, Initial residual = 4.29237e-07, Final residual = 3.51819e-08, No Iterations 2
smoothSolver:  Solving for Uz, Initial residual = 7.03457e-07, Final residual = 5.86768e-08, No Iterations 2
GAMG:  Solving for p, Initial residual = 1.26313e-06, Final residual = 7.22915e-08, No Iterations 2
time step continuity errors : sum local = 7.05043e-13, global = 1.44331e-14, cumulative = 3.62184e-08
ExecutionTime = 563.33 s  ClockTime = 568 s

Time = 386

smoothSolver:  Solving for Ux, Initial residual = 9.17979e-07, Final residual = 7.84573e-08, No Iterations 2
smoothSolver:  Solving for Uy, Initial residual = 4.1761e-07, Final residual = 3.42126e-08, No Iterations 2
smoothSolver:  Solving for Uz, Initial residual = 6.86029e-07, Final residual = 5.72237e-08, No Iterations 2
GAMG:  Solving for p, Initial residual = 1.23162e-06, Final residual = 7.04061e-08, No Iterations 2
time step continuity errors : sum local = 6.86655e-13, global = 1.37097e-14, cumulative = 3.62184e-08
ExecutionTime = 564.8 s  ClockTime = 570 s

Time = 387

smoothSolver:  Solving for Ux, Initial residual = 8.94774e-07, Final residual = 7.64485e-08, No Iterations 2
smoothSolver:  Solving for Uy, Initial residual = 4.0631e-07, Final residual = 3.32714e-08, No Iterations 2
smoothSolver:  Solving for Uz, Initial residual = 6.69062e-07, Final residual = 5.58105e-08, No Iterations 2
GAMG:  Solving for p, Initial residual = 1.20088e-06, Final residual = 6.85657e-08, No Iterations 2
time step continuity errors : sum local = 6.68705e-13, global = 1.30176e-14, cumulative = 3.62184e-08
ExecutionTime = 566.22 s  ClockTime = 571 s

Time = 388

smoothSolver:  Solving for Ux, Initial residual = 8.72193e-07, Final residual = 7.44934e-08, No Iterations 2
smoothSolver:  Solving for Uy, Initial residual = 3.95327e-07, Final residual = 3.23571e-08, No Iterations 2
smoothSolver:  Solving for Uz, Initial residual = 6.52548e-07, Final residual = 5.44363e-08, No Iterations 2
GAMG:  Solving for p, Initial residual = 1.17088e-06, Final residual = 6.6769e-08, No Iterations 2
time step continuity errors : sum local = 6.51183e-13, global = 1.23554e-14, cumulative = 3.62184e-08
ExecutionTime = 567.67 s  ClockTime = 573 s

Time = 389

smoothSolver:  Solving for Ux, Initial residual = 8.50205e-07, Final residual = 7.259e-08, No Iterations 2
smoothSolver:  Solving for Uy, Initial residual = 3.84655e-07, Final residual = 3.1469e-08, No Iterations 2
smoothSolver:  Solving for Uz, Initial residual = 6.36473e-07, Final residual = 5.30994e-08, No Iterations 2
GAMG:  Solving for p, Initial residual = 1.14162e-06, Final residual = 6.50154e-08, No Iterations 2
time step continuity errors : sum local = 6.3408e-13, global = 1.17215e-14, cumulative = 3.62184e-08
ExecutionTime = 569.13 s  ClockTime = 574 s

Time = 390

smoothSolver:  Solving for Ux, Initial residual = 8.28812e-07, Final residual = 7.07383e-08, No Iterations 2
smoothSolver:  Solving for Uy, Initial residual = 3.7429e-07, Final residual = 3.06065e-08, No Iterations 2
smoothSolver:  Solving for Uz, Initial residual = 6.20821e-07, Final residual = 5.17988e-08, No Iterations 2
GAMG:  Solving for p, Initial residual = 1.11307e-06, Final residual = 6.33041e-08, No Iterations 2
time step continuity errors : sum local = 6.1739e-13, global = 1.11146e-14, cumulative = 3.62184e-08
ExecutionTime = 570.56 s  ClockTime = 576 s

Time = 391

smoothSolver:  Solving for Ux, Initial residual = 8.07986e-07, Final residual = 6.89376e-08, No Iterations 2
smoothSolver:  Solving for Uy, Initial residual = 3.6422e-07, Final residual = 2.97696e-08, No Iterations 2
smoothSolver:  Solving for Uz, Initial residual = 6.0558e-07, Final residual = 5.05332e-08, No Iterations 2
GAMG:  Solving for p, Initial residual = 1.08522e-06, Final residual = 6.16342e-08, No Iterations 2
time step continuity errors : sum local = 6.01104e-13, global = 1.0534e-14, cumulative = 3.62184e-08
ExecutionTime = 572 s  ClockTime = 577 s

Time = 392

smoothSolver:  Solving for Ux, Initial residual = 7.87714e-07, Final residual = 6.71861e-08, No Iterations 2
smoothSolver:  Solving for Uy, Initial residual = 3.54439e-07, Final residual = 2.89575e-08, No Iterations 2
smoothSolver:  Solving for Uz, Initial residual = 5.90741e-07, Final residual = 4.93015e-08, No Iterations 2
GAMG:  Solving for p, Initial residual = 1.05804e-06, Final residual = 6.00045e-08, No Iterations 2
time step continuity errors : sum local = 5.85209e-13, global = 9.97733e-15, cumulative = 3.62184e-08
ExecutionTime = 573.47 s  ClockTime = 579 s

Time = 393

smoothSolver:  Solving for Ux, Initial residual = 7.67972e-07, Final residual = 6.5482e-08, No Iterations 2
smoothSolver:  Solving for Uy, Initial residual = 3.4494e-07, Final residual = 2.81691e-08, No Iterations 2
smoothSolver:  Solving for Uz, Initial residual = 5.76292e-07, Final residual = 4.81031e-08, No Iterations 2
GAMG:  Solving for p, Initial residual = 1.03153e-06, Final residual = 5.84145e-08, No Iterations 2
time step continuity errors : sum local = 5.69702e-13, global = 9.44299e-15, cumulative = 3.62185e-08
ExecutionTime = 574.9 s  ClockTime = 580 s

Time = 394

smoothSolver:  Solving for Ux, Initial residual = 7.48757e-07, Final residual = 6.38243e-08, No Iterations 2
smoothSolver:  Solving for Uy, Initial residual = 3.35711e-07, Final residual = 2.7404e-08, No Iterations 2
smoothSolver:  Solving for Uz, Initial residual = 5.6222e-07, Final residual = 4.69373e-08, No Iterations 2
GAMG:  Solving for p, Initial residual = 1.00566e-06, Final residual = 5.6859e-08, No Iterations 2
time step continuity errors : sum local = 5.54532e-13, global = 9.9386e-15, cumulative = 3.62185e-08
ExecutionTime = 576.35 s  ClockTime = 581 s

Time = 395

smoothSolver:  Solving for Ux, Initial residual = 7.30071e-07, Final residual = 6.22142e-08, No Iterations 2
smoothSolver:  Solving for Uy, Initial residual = 3.26762e-07, Final residual = 2.66636e-08, No Iterations 2
smoothSolver:  Solving for Uz, Initial residual = 5.48513e-07, Final residual = 4.58047e-08, No Iterations 2
GAMG:  Solving for p, Initial residual = 9.80409e-07, Final residual = 5.52652e-08, No Iterations 2
time step continuity errors : sum local = 5.38988e-13, global = 9.69727e-15, cumulative = 3.62185e-08
ExecutionTime = 577.83 s  ClockTime = 583 s


SIMPLE solution converged in 395 iterations

End

