/*---------------------------------------------------------------------------*\
  =========                 |
  \\      /  F ield         | OpenFOAM: The Open Source CFD Toolbox
   \\    /   O peration     | Website:  https://openfoam.org
    \\  /    A nd           | Version:  7
     \\/     M anipulation  |
\*---------------------------------------------------------------------------*/
Build  : 7-ca808c8420bf
Exec   : snappyHexMesh -overwrite
Date   : Mar 06 2020
Time   : 11:58:01
Host   : "bn371671"
PID    : 15177
I/O    : uncollated
Case   : /hpc_atog/bsha219/OpenFoam-Tutorials/Bifurcations
nProcs : 1
sigFpe : Enabling floating point exception trapping (FOAM_SIGFPE).
fileModificationChecking : Monitoring run-time modified files using timeStampMaster (fileModificationSkew 10)
allowSystemOperations : Allowing user-supplied system call operations

// * * * * * * * * * * * * * * * * * * * * * * * * * * * * * * * * * * * * * //
Create time

Create mesh for time = 0

Read mesh in = 0.89 s

Overall mesh bounding box  : (-185 -185 -265) (-105 -135 -190)
Relative tolerance         : 1e-06
Absolute matching distance : 0.00012051971

Reading refinement surfaces.
Read refinement surfaces in = 0.03 s

Reading refinement shells.
Refinement level according to distance to patched.stl
    level 0 for all cells within 0.0001 metre.
Read refinement shells in = 0 s

Setting refinement level of surface to be consistent with shells.
Checked shell refinement in = 0.03 s

Reading features.
Read edgeMesh patched.eMesh
    points      : 403
    edges       : 395
    boundingBox : (-182.978 -183.205 -263.79901) (-106.066 -137.722 -194.58099)

Refinement level according to distance to "patched.eMesh" (403 points, 395 edges).
    level 0 for all cells within 0 metre.
Read features in = 0 s


Determining initial surface intersections
-----------------------------------------

Edge intersection testing:
    Number of edges             : 913750
    Number of edges to retest   : 913750
    Number of intersected edges : 8398
Calculated surface intersections in = 0.9 s

Initial mesh : cells:300000  faces:913750  points:313956
Cells per refinement level:
    0	300000

Adding patches for surface regions
----------------------------------

Patch Type                Region                        
----- ----                ------                        
Bifurcations:

6     wall                wall                          
7     patch               outlet1                       
8     patch               outlet2                       
9     patch               outlet3                       
10    patch               outlet4                       
11    patch               inlet                         

Added patches in = 0.02 s

 Foam::decompositionMethod::New 
{
    method          none;
    numberOfSubdomains 1;
}

Selecting decompositionMethod none
Layer thickness specified as final layer and expansion ratio.

Refinement phase
----------------

Found point (-145 -160 -200) in cell 274359 on processor 0

Feature refinement iteration 0
------------------------------

Marked for refinement due to explicit features             : 0 cells.
Determined cells to refine in = 1.59 s
Selected for feature refinement : 0 cells (out of 300000)
Stopping refining since too few cells selected.


Surface refinement iteration 0
------------------------------

Marked for refinement due to surface intersection          : 10011 cells.
Determined cells to refine in = 0.01 s
Selected for refinement : 10011 cells (out of 300000)
Edge intersection testing:
    Number of edges             : 1149004
    Number of edges to retest   : 303138
    Number of intersected edges : 33564
Refined mesh in = 1.05 s
After refinement surface refinement iteration 0 : cells:370077  faces:1149004  points:409067
Cells per refinement level:
    0	289989
    1	80088

Surface refinement iteration 1
------------------------------

Marked for refinement due to surface intersection          : 37492 cells.
Determined cells to refine in = 0.03 s
Selected for refinement : 41351 cells (out of 370077)
Edge intersection testing:
    Number of edges             : 2110840
    Number of edges to retest   : 1248199
    Number of intersected edges : 127396
Refined mesh in = 2.48 s
After refinement surface refinement iteration 1 : cells:659534  faces:2110840  points:792231
Cells per refinement level:
    0	285903
    1	75511
    2	298120

Surface refinement iteration 2
------------------------------

Marked for refinement due to surface intersection          : 869 cells.
Determined cells to refine in = 0.06 s
Selected for refinement : 966 cells (out of 659534)
Edge intersection testing:
    Number of edges             : 2131459
    Number of edges to retest   : 89939
    Number of intersected edges : 127627
Refined mesh in = 1.79 s
After refinement surface refinement iteration 2 : cells:666296  faces:2131459  points:799327
Cells per refinement level:
    0	285806
    1	75418
    2	305072

Surface refinement iteration 3
------------------------------

Marked for refinement due to surface intersection          : 23 cells.
Determined cells to refine in = 0.06 s
Selected for refinement : 28 cells (out of 666296)
Edge intersection testing:
    Number of edges             : 2132074
    Number of edges to retest   : 2648
    Number of intersected edges : 127656
Refined mesh in = 1.68 s
After refinement surface refinement iteration 3 : cells:666492  faces:2132074  points:799546
Cells per refinement level:
    0	285801
    1	75435
    2	305256

Surface refinement iteration 4
------------------------------

Marked for refinement due to surface intersection          : 3 cells.
Determined cells to refine in = 0.06 s
Selected for refinement : 3 cells (out of 666492)
Stopping refining since too few cells selected.


Removing mesh beyond surface intersections
------------------------------------------

Found point (-145 -160 -200) in global region 0 out of 3 regions.
Keeping all cells in region 0 containing point (-145 -160 -200)
Selected for keeping : 666492 cells.
Edge intersection testing:
    Number of edges             : 2132074
    Number of edges to retest   : 0
    Number of intersected edges : 127656

Shell refinement iteration 0
----------------------------

Marked for refinement due to distance to explicit features : 0 cells.
Marked for refinement due to refinement shells             : 0 cells.
Determined cells to refine in = 15.06 s
Selected for internal refinement : 20468 cells (out of 666492)
Edge intersection testing:
    Number of edges             : 2565082
    Number of edges to retest   : 1292316
    Number of intersected edges : 128837
Refined mesh in = 2.81 s
After refinement shell refinement iteration 0 : cells:809768  faces:2565082  points:946112
Cells per refinement level:
    0	281047
    1	97753
    2	430968

Shell refinement iteration 1
----------------------------

Marked for refinement due to distance to explicit features : 0 cells.
Marked for refinement due to refinement shells             : 0 cells.
Determined cells to refine in = 0.34 s
Selected for internal refinement : 2269 cells (out of 809768)
Edge intersection testing:
    Number of edges             : 2612728
    Number of edges to retest   : 206408
    Number of intersected edges : 129201
Refined mesh in = 2.14 s
After refinement shell refinement iteration 1 : cells:825651  faces:2612728  points:961929
Cells per refinement level:
    0	279005
    1	113862
    2	432784

Shell refinement iteration 2
----------------------------

Marked for refinement due to distance to explicit features : 0 cells.
Marked for refinement due to refinement shells             : 0 cells.
Determined cells to refine in = 0.34 s
Selected for internal refinement : 9 cells (out of 825651)
Stopping refining since too few cells selected.


Dangling coarse cells refinement iteration 0
--------------------------------------------

Determined cells to refine in = 0.02 s
Selected for refinement : 23 cells (out of 825651)
Edge intersection testing:
    Number of edges             : 2613073
    Number of edges to retest   : 2689
    Number of intersected edges : 129201
Refined mesh in = 2.03 s
After refinement coarse cell refinement iteration 0 : cells:825812  faces:2613073  points:961975
Cells per refinement level:
    0	278995
    1	113929
    2	432888

Dangling coarse cells refinement iteration 1
--------------------------------------------

Determined cells to refine in = 0.02 s
Selected for refinement : 1 cells (out of 825812)
Stopping refining since too few cells selected.


Dangling coarse cells refinement iteration 0
--------------------------------------------

Determined cells to refine in = 0.02 s
Selected for refinement : 1 cells (out of 825812)
Edge intersection testing:
    Number of edges             : 2613085
    Number of edges to retest   : 132
    Number of intersected edges : 129201
Refined mesh in = 2.04 s
After refinement coarse cell refinement iteration 0 : cells:825819  faces:2613085  points:961976
Cells per refinement level:
    0	278995
    1	113928
    2	432896

Dangling coarse cells refinement iteration 1
--------------------------------------------

Determined cells to refine in = 0.04 s
Selected for refinement : 0 cells (out of 825819)
Stopping refining since too few cells selected.


Splitting mesh at surface intersections
---------------------------------------

Introducing baffles for 129201 faces that are intersected by the surface.

Edge intersection testing:
    Number of edges             : 2742286
    Number of edges to retest   : 727167
    Number of intersected edges : 257970
Created baffles in = 2.23 s


After introducing baffles : cells:825819  faces:2742286  points:961976
Cells per refinement level:
    0	278995
    1	113928
    2	432896

Introducing baffles to block off problem cells
----------------------------------------------

markFacesOnProblemCells : marked 751 additional internal faces to be converted into baffles.
Analyzed problem cells in = 1.63 s


Introducing baffles to delete problem cells.

Edge intersection testing:
    Number of edges             : 2743037
    Number of edges to retest   : 5706
    Number of intersected edges : 257972
Created baffles in = 1.82 s


After introducing baffles : cells:825819  faces:2743037  points:961976
Cells per refinement level:
    0	278995
    1	113928
    2	432896

Remove unreachable sections of mesh
-----------------------------------

Keeping all cells in region 1 containing point (-145 -160 -200)
Selected for keeping : 256761 cells.
Edge intersection testing:
    Number of edges             : 884957
    Number of edges to retest   : 0
    Number of intersected edges : 127732
Split mesh in = 17.27 s


After subsetting : cells:256761  faces:884957  points:371949
Cells per refinement level:
    0	7103
    1	45081
    2	204577

Handling cells with snap problems
---------------------------------

Introducing baffles for 127732 faces that are intersected by the surface.

Edge intersection testing:
    Number of edges             : 884957
    Number of edges to retest   : 355031
    Number of intersected edges : 127732
Created baffles in = 0.95 s


After introducing baffles : cells:256761  faces:884957  points:371949
Cells per refinement level:
    0	7103
    1	45081
    2	204577

Introducing baffles to block off problem cells
----------------------------------------------

markFacesOnProblemCells : marked 0 additional internal faces to be converted into baffles.
Analyzed problem cells in = 0.64 s


Introducing baffles to delete problem cells.

Edge intersection testing:
    Number of edges             : 884957
    Number of edges to retest   : 0
    Number of intersected edges : 127732
Created baffles in = 0.64 s


After introducing baffles : cells:256761  faces:884957  points:371949
Cells per refinement level:
    0	7103
    1	45081
    2	204577

Remove unreachable sections of mesh
-----------------------------------

Keeping all cells in region 0 containing point (-145 -160 -200)
Selected for keeping : 256761 cells.
Edge intersection testing:
    Number of edges             : 884957
    Number of edges to retest   : 0
    Number of intersected edges : 127732
Split mesh in = 4.58 s


After subsetting : cells:256761  faces:884957  points:371949
Cells per refinement level:
    0	7103
    1	45081
    2	204577

Merge free-standing baffles
---------------------------

freeStandingBaffles : detected 28 free-standing baffles out of 28

freeStandingBaffles : detected 3 planar (within 30 degrees) free-standing baffles out of 28

Detected free-standing baffles : 3
Edge intersection testing:
    Number of edges             : 884954
    Number of edges to retest   : 3
    Number of intersected edges : 127729

Introducing baffles to block off problem cells
----------------------------------------------

markFacesOnProblemCells : marked 0 additional internal faces to be converted into baffles.
Analyzed problem cells in = 1.31 s


Introducing baffles to delete problem cells.

Edge intersection testing:
    Number of edges             : 884954
    Number of edges to retest   : 0
    Number of intersected edges : 127729
Created baffles in = 0.52 s


After introducing baffles : cells:256761  faces:884954  points:371949
Cells per refinement level:
    0	7103
    1	45081
    2	204577
Merged free-standing baffles in = 0 s


dupNonManifoldPoints : Found : 27 non-manifold points (out of 371949)
Edge intersection testing:
    Number of edges             : 884954
    Number of edges to retest   : 0
    Number of intersected edges : 127729
Detected unsplittable baffles : 0

Merge refined boundary faces
----------------------------

Merging 70 sets of faces.

Edge intersection testing:
    Number of edges             : 884874
    Number of edges to retest   : 681
    Number of intersected edges : 127652

Undo iteration 0
----------------
Checking faces in error :
    non-orthogonality > 80  degrees                        : 0
    faces with face pyramid volume < 1e-13                 : 0
    faces with concavity > 80  degrees                     : 0
    faces with skewness > 4   (internal) or 4   (boundary) : 0
    faces with interpolation weights (0..1)  < 0.05        : 0
    faces with volume ratio of neighbour cells < 0.01      : 0
    faces with face twist < 0.02                           : 0
    faces on cells with determinant < 0.001                : 0

Merging all points on surface that
- are used by only two boundary faces and
- make an angle with a cosine of more than 0.70710678.

Removing 122 straight edge points ...

Edge intersection testing:
    Number of edges             : 884874
    Number of edges to retest   : 1098
    Number of intersected edges : 127652

Undo iteration 0
----------------
Checking faces in error :
    non-orthogonality > 80  degrees                        : 0
    faces with face pyramid volume < 1e-13                 : 0
    faces with concavity > 80  degrees                     : 0
    faces with skewness > 4   (internal) or 4   (boundary) : 0
    faces with interpolation weights (0..1)  < 0.05        : 0
    faces with volume ratio of neighbour cells < 0.01      : 0
    faces with face twist < 0.02                           : 0
    faces on cells with determinant < 0.001                : 0
Refined mesh : cells:256761  faces:884874  points:371849
Cells per refinement level:
    0	7103
    1	45081
    2	204577
Writing mesh to time constant
Wrote mesh in = 4.55 s.
Mesh refined in = 69.81 s.

Morphing phase
--------------


Snapping to features in 10 iterations ...
Constructing mesh displacer ...
Using mesh parameters 
{
    maxNonOrtho     80;
    maxBoundarySkewness 4;
    maxInternalSkewness 4;
    maxConcave      80;
    minVol          1e-13;
    minTetQuality   -1e+30;
    minArea         -1;
    minTwist        0.02;
    minDeterminant  0.001;
    minFaceWeight   0.05;
    minVolRatio     0.01;
    minTriangleTwist -1;
    relaxed
    {
        maxNonOrtho     75;
    }
    nSmoothScale    4;
    errorReduction  0.75;
}


Checking initial mesh ...
Checking faces in error :
    non-orthogonality > 80  degrees                        : 0
    faces with face pyramid volume < 1e-13                 : 0
    faces with concavity > 80  degrees                     : 0
    faces with skewness > 4   (internal) or 4   (boundary) : 0
    faces with interpolation weights (0..1)  < 0.05        : 0
    faces with volume ratio of neighbour cells < 0.01      : 0
    faces with face twist < 0.02                           : 0
    faces on cells with determinant < 0.001                : 0
Detected 0 illegal faces (concave, zero area or negative cell pyramid volume)
Checked initial mesh in = 0.85 s


Smoothing patch points ...
Smoothing iteration 0
Found 54 non-manifold point(s).

Scaling iteration 0
Moving mesh using displacement scaling : min:1  max:1
Checking faces in error :
    non-orthogonality > 80  degrees                        : 0
    faces with face pyramid volume < 1e-13                 : 0
    faces with concavity > 80  degrees                     : 0
    faces with skewness > 4   (internal) or 4   (boundary) : 0
    faces with interpolation weights (0..1)  < 0.05        : 0
    faces with volume ratio of neighbour cells < 0.01      : 0
    faces with face twist < 0.02                           : 1
    faces on cells with determinant < 0.001                : 0

Scaling iteration 1
Moving mesh using displacement scaling : min:0.75  max:1
Checking faces in error :
    non-orthogonality > 80  degrees                        : 0
    faces with face pyramid volume < 1e-13                 : 0
    faces with concavity > 80  degrees                     : 0
    faces with skewness > 4   (internal) or 4   (boundary) : 0
    faces with interpolation weights (0..1)  < 0.05        : 0
    faces with volume ratio of neighbour cells < 0.01      : 0
    faces with face twist < 0.02                           : 0
    faces on cells with determinant < 0.001                : 0
Successfully moved mesh

Smoothing iteration 1
Found 0 non-manifold point(s).

Scaling iteration 0
Moving mesh using displacement scaling : min:1  max:1
Checking faces in error :
    non-orthogonality > 80  degrees                        : 0
    faces with face pyramid volume < 1e-13                 : 0
    faces with concavity > 80  degrees                     : 0
    faces with skewness > 4   (internal) or 4   (boundary) : 0
    faces with interpolation weights (0..1)  < 0.05        : 0
    faces with volume ratio of neighbour cells < 0.01      : 0
    faces with face twist < 0.02                           : 0
    faces on cells with determinant < 0.001                : 0
Successfully moved mesh

Smoothing iteration 2
Found 0 non-manifold point(s).

Scaling iteration 0
Moving mesh using displacement scaling : min:1  max:1
Checking faces in error :
    non-orthogonality > 80  degrees                        : 0
    faces with face pyramid volume < 1e-13                 : 0
    faces with concavity > 80  degrees                     : 0
    faces with skewness > 4   (internal) or 4   (boundary) : 0
    faces with interpolation weights (0..1)  < 0.05        : 0
    faces with volume ratio of neighbour cells < 0.01      : 0
    faces with face twist < 0.02                           : 0
    faces on cells with determinant < 0.001                : 0
Successfully moved mesh

Patch points smoothed in = 2.95 s



Morph iteration 0
-----------------
Calculating patchDisplacement as distance to nearest surface point ...
Wanted displacement : average:0.047182471 min:1.4406588e-07 max:0.30939974
Calculated surface displacement in = 0.12 s


Detecting near surfaces ...
Overriding nearest with intersection of close gaps at 10 out of 128595 points.
Overriding displacement on features :
   implicit features    : false
   explicit features    : true
   multi-patch features : false

Detected 18 baffle edges out of 256926 edges.
Initially selected 1558 points out of 128595 for reverse attraction.
Selected 4984 points out of 128595 for reverse attraction.
Stringing feature edges : changed 250 points
Stringing feature edges : changed 5 points
Stringing feature edges : changed 1 points
Stringing feature edges : changed 0 points
Attraction:
     linear   : max:(0.036572514 -0.30622826 0.024797215) avg:(0.00022913124 0.00087963394 0.00036276974)
     feature  : max:(0.42043857 -0.044065359 0.38682406) avg:(-0.00015405264 -0.00013784057 -5.7746436e-05)
Feature analysis : total master points:128595 attraction to :
    feature point   : 4
    feature edge    : 1529
    nearest surface : 0
    rest            : 127062

--> FOAM Warning : Displacement (0.018321834 0.0057293241 -0.0031473926) at mesh point 113566 coord (-108.03076 -144.30886 -223.25388) points through the surrounding patch faces
Smoothing displacement ...
Iteration 0
Iteration 10
Iteration 20
Iteration 30
Iteration 40
Iteration 50
Iteration 60
Iteration 70
Iteration 80
Iteration 90
Iteration 100
Iteration 110
Iteration 120
Iteration 130
Iteration 140
Iteration 150
Iteration 160
Iteration 170
Iteration 180
Iteration 190
Iteration 200
Iteration 210
Iteration 220
Iteration 230
Iteration 240
Iteration 250
Iteration 260
Iteration 270
Iteration 280
Iteration 290
Displacement smoothed in = 6.1 s


Moving mesh ...

Iteration 0
Moving mesh using displacement scaling : min:1  max:1
Checking faces in error :
    non-orthogonality > 80  degrees                        : 0
    faces with face pyramid volume < 1e-13                 : 0
    faces with concavity > 80  degrees                     : 0
    faces with skewness > 4   (internal) or 4   (boundary) : 0
    faces with interpolation weights (0..1)  < 0.05        : 0
    faces with volume ratio of neighbour cells < 0.01      : 0
    faces with face twist < 0.02                           : 0
    faces on cells with determinant < 0.001                : 0
Successfully moved mesh
Moved mesh in = 0.69 s



Morph iteration 1
-----------------
Calculating patchDisplacement as distance to nearest surface point ...
Wanted displacement : average:0.043535314 min:2.0123041e-06 max:0.29494699
Calculated surface displacement in = 0.12 s


Detecting near surfaces ...
Overriding nearest with intersection of close gaps at 11 out of 128595 points.
Overriding displacement on features :
   implicit features    : false
   explicit features    : true
   multi-patch features : false

Detected 16 baffle edges out of 256926 edges.
Initially selected 1556 points out of 128595 for reverse attraction.
Selected 4988 points out of 128595 for reverse attraction.
Stringing feature edges : changed 259 points
Stringing feature edges : changed 5 points
Stringing feature edges : changed 1 points
Stringing feature edges : changed 0 points
Attraction:
     linear   : max:(0.034864131 -0.29192366 0.023638882) avg:(0.00021456706 0.00079583788 0.0003292559)
     feature  : max:(0.39353459 -0.052620713 0.38879324) avg:(-0.00014489584 -0.00013246437 -4.8288292e-05)
Feature analysis : total master points:128595 attraction to :
    feature point   : 3
    feature edge    : 1532
    nearest surface : 0
    rest            : 127060

--> FOAM Warning : Displacement (0.0072175675 0.0099739893 -0.0014469663) at mesh point 71263 coord (-143.74236 -150.08638 -215.88308) points through the surrounding patch faces
Smoothing displacement ...
Iteration 0
Iteration 10
Iteration 20
Iteration 30
Iteration 40
Iteration 50
Iteration 60
Iteration 70
Iteration 80
Iteration 90
Iteration 100
Iteration 110
Iteration 120
Iteration 130
Iteration 140
Iteration 150
Iteration 160
Iteration 170
Iteration 180
Iteration 190
Iteration 200
Iteration 210
Iteration 220
Iteration 230
Iteration 240
Iteration 250
Iteration 260
Iteration 270
Iteration 280
Iteration 290
Displacement smoothed in = 5.9 s


Moving mesh ...

Iteration 0
Moving mesh using displacement scaling : min:1  max:1
Checking faces in error :
    non-orthogonality > 80  degrees                        : 0
    faces with face pyramid volume < 1e-13                 : 0
    faces with concavity > 80  degrees                     : 0
    faces with skewness > 4   (internal) or 4   (boundary) : 0
    faces with interpolation weights (0..1)  < 0.05        : 0
    faces with volume ratio of neighbour cells < 0.01      : 0
    faces with face twist < 0.02                           : 0
    faces on cells with determinant < 0.001                : 0
Successfully moved mesh
Moved mesh in = 0.69 s



Morph iteration 2
-----------------
Calculating patchDisplacement as distance to nearest surface point ...
Wanted displacement : average:0.037074604 min:2.8237031e-07 max:0.26458677
Calculated surface displacement in = 0.12 s


Detecting near surfaces ...
Overriding nearest with intersection of close gaps at 12 out of 128595 points.
Overriding displacement on features :
   implicit features    : false
   explicit features    : true
   multi-patch features : false

Detected 14 baffle edges out of 256926 edges.
Initially selected 1564 points out of 128595 for reverse attraction.
Selected 4988 points out of 128595 for reverse attraction.
Stringing feature edges : changed 251 points
Stringing feature edges : changed 4 points
Stringing feature edges : changed 1 points
Stringing feature edges : changed 0 points
Attraction:
     linear   : max:(0.031275409 -0.26187464 0.021205625) avg:(0.00018613649 0.00064474261 0.00026652898)
     feature  : max:(0.34146879 -0.064936135 0.38257142) avg:(-0.0001312294 -0.00011438176 -3.6846965e-05)
Feature analysis : total master points:128595 attraction to :
    feature point   : 3
    feature edge    : 1533
    nearest surface : 0
    rest            : 127059

--> FOAM Warning : Displacement (0.0097219372 0.011632195 -0.0005950462) at mesh point 71263 coord (-143.73514 -150.0764 -215.88453) points through the surrounding patch faces
Smoothing displacement ...
Iteration 0
Iteration 10
Iteration 20
Iteration 30
Iteration 40
Iteration 50
Iteration 60
Iteration 70
Iteration 80
Iteration 90
Iteration 100
Iteration 110
Iteration 120
Iteration 130
Iteration 140
Iteration 150
Iteration 160
Iteration 170
Iteration 180
Iteration 190
Iteration 200
Iteration 210
Iteration 220
Iteration 230
Iteration 240
Iteration 250
Iteration 260
Iteration 270
Iteration 280
Iteration 290
Displacement smoothed in = 5.98 s


Moving mesh ...

Iteration 0
Moving mesh using displacement scaling : min:1  max:1
Checking faces in error :
    non-orthogonality > 80  degrees                        : 0
    faces with face pyramid volume < 1e-13                 : 0
    faces with concavity > 80  degrees                     : 0
    faces with skewness > 4   (internal) or 4   (boundary) : 0
    faces with interpolation weights (0..1)  < 0.05        : 0
    faces with volume ratio of neighbour cells < 0.01      : 0
    faces with face twist < 0.02                           : 0
    faces on cells with determinant < 0.001                : 0
Successfully moved mesh
Moved mesh in = 0.7 s



Morph iteration 3
-----------------
Calculating patchDisplacement as distance to nearest surface point ...
Wanted displacement : average:0.029398265 min:3.2522289e-07 max:0.22020258
Calculated surface displacement in = 0.12 s


Detecting near surfaces ...
Overriding nearest with intersection of close gaps at 13 out of 128595 points.
Overriding displacement on features :
   implicit features    : false
   explicit features    : true
   multi-patch features : false

Detected 12 baffle edges out of 256926 edges.
Initially selected 1572 points out of 128595 for reverse attraction.
Selected 4991 points out of 128595 for reverse attraction.
Stringing feature edges : changed 246 points
Stringing feature edges : changed 5 points
Stringing feature edges : changed 1 points
Stringing feature edges : changed 0 points
Attraction:
     linear   : max:(0.026028987 -0.21794541 0.017648401) avg:(0.00014647811 0.00045900646 0.00018786006)
     feature  : max:(0.27256446 -0.074294732 0.35792204) avg:(-0.00011437694 -8.9571852e-05 -2.2312451e-05)
Feature analysis : total master points:128595 attraction to :
    feature point   : 3
    feature edge    : 1535
    nearest surface : 0
    rest            : 127057

--> FOAM Warning : Displacement (-0.00019017967 -0.00090275848 -0.0016233492) at mesh point 156378 coord (-171.75168 -150.28888 -254.88365) points through the surrounding patch faces
Smoothing displacement ...
Iteration 0
Iteration 10
Iteration 20
Iteration 30
Iteration 40
Iteration 50
Iteration 60
Iteration 70
Iteration 80
Iteration 90
Iteration 100
Iteration 110
Iteration 120
Iteration 130
Iteration 140
Iteration 150
Iteration 160
Iteration 170
Iteration 180
Iteration 190
Iteration 200
Iteration 210
Iteration 220
Iteration 230
Iteration 240
Iteration 250
Iteration 260
Iteration 270
Iteration 280
Iteration 290
Displacement smoothed in = 6.41 s


Moving mesh ...

Iteration 0
Moving mesh using displacement scaling : min:1  max:1
Checking faces in error :
    non-orthogonality > 80  degrees                        : 0
    faces with face pyramid volume < 1e-13                 : 0
    faces with concavity > 80  degrees                     : 0
    faces with skewness > 4   (internal) or 4   (boundary) : 0
    faces with interpolation weights (0..1)  < 0.05        : 0
    faces with volume ratio of neighbour cells < 0.01      : 0
    faces with face twist < 0.02                           : 1
    faces on cells with determinant < 0.001                : 0

Iteration 1
Moving mesh using displacement scaling : min:0.75  max:1
Checking faces in error :
    non-orthogonality > 80  degrees                        : 0
    faces with face pyramid volume < 1e-13                 : 0
    faces with concavity > 80  degrees                     : 0
    faces with skewness > 4   (internal) or 4   (boundary) : 0
    faces with interpolation weights (0..1)  < 0.05        : 0
    faces with volume ratio of neighbour cells < 0.01      : 0
    faces with face twist < 0.02                           : 0
    faces on cells with determinant < 0.001                : 0
Successfully moved mesh
Moved mesh in = 1.11 s



Morph iteration 4
-----------------
Calculating patchDisplacement as distance to nearest surface point ...
Wanted displacement : average:0.02181767 min:4.9602053e-07 max:0.16715131
Calculated surface displacement in = 0.13 s


Detecting near surfaces ...
Overriding nearest with intersection of close gaps at 12 out of 128595 points.
Overriding displacement on features :
   implicit features    : false
   explicit features    : true
   multi-patch features : false

Detected 12 baffle edges out of 256926 edges.
Initially selected 1570 points out of 128595 for reverse attraction.
Selected 4980 points out of 128595 for reverse attraction.
Stringing feature edges : changed 240 points
Stringing feature edges : changed 3 points
Stringing feature edges : changed 0 points
Attraction:
     linear   : max:(0.019758076 -0.16543794 0.013396543) avg:(0.00010334012 0.00027877527 0.00010952569)
     feature  : max:(0.19938858 0.0039437984 0.31638274) avg:(-8.8940032e-05 -6.572469e-05 -6.1828717e-06)
Feature analysis : total master points:128595 attraction to :
    feature point   : 2
    feature edge    : 1533
    nearest surface : 0
    rest            : 127060

--> FOAM Warning : Displacement (-0.0010652922 0.00085575639 0.00012745244) at mesh point 110014 coord (-125.09228 -150.58813 -229.06694) points through the surrounding patch faces
Smoothing displacement ...
Iteration 0
Iteration 10
Iteration 20
Iteration 30
Iteration 40
Iteration 50
Iteration 60
Iteration 70
Iteration 80
Iteration 90
Iteration 100
Iteration 110
Iteration 120
Iteration 130
Iteration 140
Iteration 150
Iteration 160
Iteration 170
Iteration 180
Iteration 190
Iteration 200
Iteration 210
Iteration 220
Iteration 230
Iteration 240
Iteration 250
Iteration 260
Iteration 270
Iteration 280
Iteration 290
Displacement smoothed in = 6.86 s


Moving mesh ...

Iteration 0
Moving mesh using displacement scaling : min:1  max:1
Checking faces in error :
    non-orthogonality > 80  degrees                        : 0
    faces with face pyramid volume < 1e-13                 : 0
    faces with concavity > 80  degrees                     : 0
    faces with skewness > 4   (internal) or 4   (boundary) : 0
    faces with interpolation weights (0..1)  < 0.05        : 0
    faces with volume ratio of neighbour cells < 0.01      : 0
    faces with face twist < 0.02                           : 3
    faces on cells with determinant < 0.001                : 0

Iteration 1
Moving mesh using displacement scaling : min:0.75  max:1
Checking faces in error :
    non-orthogonality > 80  degrees                        : 0
    faces with face pyramid volume < 1e-13                 : 0
    faces with concavity > 80  degrees                     : 0
    faces with skewness > 4   (internal) or 4   (boundary) : 0
    faces with interpolation weights (0..1)  < 0.05        : 0
    faces with volume ratio of neighbour cells < 0.01      : 0
    faces with face twist < 0.02                           : 2
    faces on cells with determinant < 0.001                : 0

Iteration 2
Moving mesh using displacement scaling : min:0.5625  max:1
Checking faces in error :
    non-orthogonality > 80  degrees                        : 0
    faces with face pyramid volume < 1e-13                 : 0
    faces with concavity > 80  degrees                     : 0
    faces with skewness > 4   (internal) or 4   (boundary) : 0
    faces with interpolation weights (0..1)  < 0.05        : 0
    faces with volume ratio of neighbour cells < 0.01      : 0
    faces with face twist < 0.02                           : 1
    faces on cells with determinant < 0.001                : 0

Iteration 3
Moving mesh using displacement scaling : min:0.421875  max:1
Checking faces in error :
    non-orthogonality > 80  degrees                        : 0
    faces with face pyramid volume < 1e-13                 : 0
    faces with concavity > 80  degrees                     : 0
    faces with skewness > 4   (internal) or 4   (boundary) : 0
    faces with interpolation weights (0..1)  < 0.05        : 0
    faces with volume ratio of neighbour cells < 0.01      : 0
    faces with face twist < 0.02                           : 1
    faces on cells with determinant < 0.001                : 0

Iteration 4
Moving mesh using displacement scaling : min:0.31640625  max:1
Checking faces in error :
    non-orthogonality > 80  degrees                        : 0
    faces with face pyramid volume < 1e-13                 : 0
    faces with concavity > 80  degrees                     : 0
    faces with skewness > 4   (internal) or 4   (boundary) : 0
    faces with interpolation weights (0..1)  < 0.05        : 0
    faces with volume ratio of neighbour cells < 0.01      : 0
    faces with face twist < 0.02                           : 1
    faces on cells with determinant < 0.001                : 0

Iteration 5
Displacement scaling for error reduction set to 0.
Moving mesh using displacement scaling : min:0.23730469  max:1
Checking faces in error :
    non-orthogonality > 80  degrees                        : 0
    faces with face pyramid volume < 1e-13                 : 0
    faces with concavity > 80  degrees                     : 0
    faces with skewness > 4   (internal) or 4   (boundary) : 0
    faces with interpolation weights (0..1)  < 0.05        : 0
    faces with volume ratio of neighbour cells < 0.01      : 0
    faces with face twist < 0.02                           : 1
    faces on cells with determinant < 0.001                : 0

Iteration 6
Moving mesh using displacement scaling : min:0  max:1
Checking faces in error :
    non-orthogonality > 80  degrees                        : 0
    faces with face pyramid volume < 1e-13                 : 0
    faces with concavity > 80  degrees                     : 0
    faces with skewness > 4   (internal) or 4   (boundary) : 0
    faces with interpolation weights (0..1)  < 0.05        : 0
    faces with volume ratio of neighbour cells < 0.01      : 0
    faces with face twist < 0.02                           : 0
    faces on cells with determinant < 0.001                : 0
Successfully moved mesh
Moved mesh in = 3.13 s



Morph iteration 5
-----------------
Calculating patchDisplacement as distance to nearest surface point ...
Wanted displacement : average:0.014915802 min:3.6764789e-07 max:0.11286688
Calculated surface displacement in = 0.13 s


Detecting near surfaces ...
Overriding nearest with intersection of close gaps at 17 out of 128595 points.
Overriding displacement on features :
   implicit features    : false
   explicit features    : true
   multi-patch features : false

Detected 8 baffle edges out of 256926 edges.
Initially selected 1554 points out of 128595 for reverse attraction.
Selected 4960 points out of 128595 for reverse attraction.
Stringing feature edges : changed 226 points
Stringing feature edges : changed 1 points
Stringing feature edges : changed 0 points
Attraction:
     linear   : max:(0.0133414 -0.11170995 0.0090458524) avg:(6.3979882e-05 0.00013563006 4.6130228e-05)
     feature  : max:(-0.19526596 0.14254595 0.20912761) avg:(-6.3097709e-05 -4.3948136e-05 3.6503577e-06)
Feature analysis : total master points:128595 attraction to :
    feature point   : 2
    feature edge    : 1528
    nearest surface : 0
    rest            : 127065

--> FOAM Warning : Displacement (-0.0083627814 0.010702085 0.035037512) at mesh point 304514 coord (-107.7973 -144.26722 -223.25295) points through the surrounding patch faces
Smoothing displacement ...
Iteration 0
Iteration 10
Iteration 20
Iteration 30
Iteration 40
Iteration 50
Iteration 60
Iteration 70
Iteration 80
Iteration 90
Iteration 100
Iteration 110
Iteration 120
Iteration 130
Iteration 140
Iteration 150
Iteration 160
Iteration 170
Iteration 180
Iteration 190
Iteration 200
Iteration 210
Iteration 220
Iteration 230
Iteration 240
Iteration 250
Iteration 260
Iteration 270
Iteration 280
Iteration 290
Displacement smoothed in = 7.07 s


Moving mesh ...

Iteration 0
Moving mesh using displacement scaling : min:1  max:1
Checking faces in error :
    non-orthogonality > 80  degrees                        : 0
    faces with face pyramid volume < 1e-13                 : 1
    faces with concavity > 80  degrees                     : 3
    faces with skewness > 4   (internal) or 4   (boundary) : 1
    faces with interpolation weights (0..1)  < 0.05        : 0
    faces with volume ratio of neighbour cells < 0.01      : 0
    faces with face twist < 0.02                           : 5
    faces on cells with determinant < 0.001                : 0

Iteration 1
Moving mesh using displacement scaling : min:0.75  max:1
Checking faces in error :
    non-orthogonality > 80  degrees                        : 0
    faces with face pyramid volume < 1e-13                 : 0
    faces with concavity > 80  degrees                     : 2
    faces with skewness > 4   (internal) or 4   (boundary) : 1
    faces with interpolation weights (0..1)  < 0.05        : 0
    faces with volume ratio of neighbour cells < 0.01      : 0
    faces with face twist < 0.02                           : 5
    faces on cells with determinant < 0.001                : 0

Iteration 2
Moving mesh using displacement scaling : min:0.5625  max:1
Checking faces in error :
    non-orthogonality > 80  degrees                        : 0
    faces with face pyramid volume < 1e-13                 : 0
    faces with concavity > 80  degrees                     : 1
    faces with skewness > 4   (internal) or 4   (boundary) : 0
    faces with interpolation weights (0..1)  < 0.05        : 0
    faces with volume ratio of neighbour cells < 0.01      : 0
    faces with face twist < 0.02                           : 5
    faces on cells with determinant < 0.001                : 0

Iteration 3
Moving mesh using displacement scaling : min:0.421875  max:1
Checking faces in error :
    non-orthogonality > 80  degrees                        : 0
    faces with face pyramid volume < 1e-13                 : 0
    faces with concavity > 80  degrees                     : 1
    faces with skewness > 4   (internal) or 4   (boundary) : 0
    faces with interpolation weights (0..1)  < 0.05        : 0
    faces with volume ratio of neighbour cells < 0.01      : 0
    faces with face twist < 0.02                           : 5
    faces on cells with determinant < 0.001                : 0

Iteration 4
Moving mesh using displacement scaling : min:0.31640625  max:1
Checking faces in error :
    non-orthogonality > 80  degrees                        : 0
    faces with face pyramid volume < 1e-13                 : 0
    faces with concavity > 80  degrees                     : 1
    faces with skewness > 4   (internal) or 4   (boundary) : 0
    faces with interpolation weights (0..1)  < 0.05        : 0
    faces with volume ratio of neighbour cells < 0.01      : 0
    faces with face twist < 0.02                           : 5
    faces on cells with determinant < 0.001                : 0

Iteration 5
Displacement scaling for error reduction set to 0.
Moving mesh using displacement scaling : min:0.23730469  max:1
Checking faces in error :
    non-orthogonality > 80  degrees                        : 0
    faces with face pyramid volume < 1e-13                 : 0
    faces with concavity > 80  degrees                     : 1
    faces with skewness > 4   (internal) or 4   (boundary) : 0
    faces with interpolation weights (0..1)  < 0.05        : 0
    faces with volume ratio of neighbour cells < 0.01      : 0
    faces with face twist < 0.02                           : 4
    faces on cells with determinant < 0.001                : 0

Iteration 6
Moving mesh using displacement scaling : min:0  max:1
Checking faces in error :
    non-orthogonality > 80  degrees                        : 0
    faces with face pyramid volume < 1e-13                 : 0
    faces with concavity > 80  degrees                     : 0
    faces with skewness > 4   (internal) or 4   (boundary) : 0
    faces with interpolation weights (0..1)  < 0.05        : 0
    faces with volume ratio of neighbour cells < 0.01      : 0
    faces with face twist < 0.02                           : 0
    faces on cells with determinant < 0.001                : 0
Successfully moved mesh
Moved mesh in = 2.94 s



Morph iteration 6
-----------------
Calculating patchDisplacement as distance to nearest surface point ...
Wanted displacement : average:0.0089872408 min:1.5975903e-07 max:0.065233132
Calculated surface displacement in = 0.11 s


Detecting near surfaces ...
Overriding nearest with intersection of close gaps at 29 out of 128595 points.
Overriding displacement on features :
   implicit features    : false
   explicit features    : true
   multi-patch features : false

Detected 33 baffle edges out of 256926 edges.
Initially selected 1549 points out of 128595 for reverse attraction.
Selected 4950 points out of 128595 for reverse attraction.
Stringing feature edges : changed 209 points
Stringing feature edges : changed 0 points
Attraction:
     linear   : max:(0.0077108651 -0.064564465 0.005228188) avg:(3.4030011e-05 4.374858e-05 3.0910501e-06)
     feature  : max:(-0.19526304 0.14254819 0.20912881) avg:(-3.9893152e-05 -2.6515462e-05 5.3856559e-06)
Feature analysis : total master points:128595 attraction to :
    feature point   : 2
    feature edge    : 1525
    nearest surface : 0
    rest            : 127068

--> FOAM Warning : Displacement (-0.010898096 0.0019109874 0.0022470049) at mesh point 68938 coord (-179.87372 -141.5475 -245.10427) points through the surrounding patch faces
Smoothing displacement ...
Iteration 0
Iteration 10
Iteration 20
Iteration 30
Iteration 40
Iteration 50
Iteration 60
Iteration 70
Iteration 80
Iteration 90
Iteration 100
Iteration 110
Iteration 120
Iteration 130
Iteration 140
Iteration 150
Iteration 160
Iteration 170
Iteration 180
Iteration 190
Iteration 200
Iteration 210
Iteration 220
Iteration 230
Iteration 240
Iteration 250
Iteration 260
Iteration 270
Iteration 280
Iteration 290
Displacement smoothed in = 6.35 s


Moving mesh ...

Iteration 0
Moving mesh using displacement scaling : min:1  max:1
Checking faces in error :
    non-orthogonality > 80  degrees                        : 0
    faces with face pyramid volume < 1e-13                 : 3
    faces with concavity > 80  degrees                     : 2
    faces with skewness > 4   (internal) or 4   (boundary) : 2
    faces with interpolation weights (0..1)  < 0.05        : 0
    faces with volume ratio of neighbour cells < 0.01      : 0
    faces with face twist < 0.02                           : 22
    faces on cells with determinant < 0.001                : 0

Iteration 1
Moving mesh using displacement scaling : min:0.75  max:1
Checking faces in error :
    non-orthogonality > 80  degrees                        : 0
    faces with face pyramid volume < 1e-13                 : 1
    faces with concavity > 80  degrees                     : 4
    faces with skewness > 4   (internal) or 4   (boundary) : 2
    faces with interpolation weights (0..1)  < 0.05        : 0
    faces with volume ratio of neighbour cells < 0.01      : 0
    faces with face twist < 0.02                           : 14
    faces on cells with determinant < 0.001                : 0

Iteration 2
Moving mesh using displacement scaling : min:0.5625  max:1
Checking faces in error :
    non-orthogonality > 80  degrees                        : 0
    faces with face pyramid volume < 1e-13                 : 1
    faces with concavity > 80  degrees                     : 3
    faces with skewness > 4   (internal) or 4   (boundary) : 2
    faces with interpolation weights (0..1)  < 0.05        : 0
    faces with volume ratio of neighbour cells < 0.01      : 0
    faces with face twist < 0.02                           : 13
    faces on cells with determinant < 0.001                : 0

Iteration 3
Moving mesh using displacement scaling : min:0.421875  max:1
Checking faces in error :
    non-orthogonality > 80  degrees                        : 0
    faces with face pyramid volume < 1e-13                 : 1
    faces with concavity > 80  degrees                     : 2
    faces with skewness > 4   (internal) or 4   (boundary) : 2
    faces with interpolation weights (0..1)  < 0.05        : 0
    faces with volume ratio of neighbour cells < 0.01      : 0
    faces with face twist < 0.02                           : 12
    faces on cells with determinant < 0.001                : 0

Iteration 4
Moving mesh using displacement scaling : min:0.31640625  max:1
Checking faces in error :
    non-orthogonality > 80  degrees                        : 0
    faces with face pyramid volume < 1e-13                 : 0
    faces with concavity > 80  degrees                     : 2
    faces with skewness > 4   (internal) or 4   (boundary) : 1
    faces with interpolation weights (0..1)  < 0.05        : 0
    faces with volume ratio of neighbour cells < 0.01      : 0
    faces with face twist < 0.02                           : 12
    faces on cells with determinant < 0.001                : 0

Iteration 5
Displacement scaling for error reduction set to 0.
Moving mesh using displacement scaling : min:0.23730469  max:1
Checking faces in error :
    non-orthogonality > 80  degrees                        : 0
    faces with face pyramid volume < 1e-13                 : 0
    faces with concavity > 80  degrees                     : 2
    faces with skewness > 4   (internal) or 4   (boundary) : 1
    faces with interpolation weights (0..1)  < 0.05        : 0
    faces with volume ratio of neighbour cells < 0.01      : 0
    faces with face twist < 0.02                           : 11
    faces on cells with determinant < 0.001                : 0

Iteration 6
Moving mesh using displacement scaling : min:0  max:1
Checking faces in error :
    non-orthogonality > 80  degrees                        : 0
    faces with face pyramid volume < 1e-13                 : 0
    faces with concavity > 80  degrees                     : 0
    faces with skewness > 4   (internal) or 4   (boundary) : 0
    faces with interpolation weights (0..1)  < 0.05        : 0
    faces with volume ratio of neighbour cells < 0.01      : 0
    faces with face twist < 0.02                           : 0
    faces on cells with determinant < 0.001                : 0
Successfully moved mesh
Moved mesh in = 3.09 s



Morph iteration 7
-----------------
Calculating patchDisplacement as distance to nearest surface point ...
Wanted displacement : average:0.0044633188 min:2.2438287e-08 max:0.0495968
Calculated surface displacement in = 0.11 s


Detecting near surfaces ...
Overriding nearest with intersection of close gaps at 49 out of 128595 points.
Overriding displacement on features :
   implicit features    : false
   explicit features    : true
   multi-patch features : false

Detected 111 baffle edges out of 256926 edges.
Initially selected 1541 points out of 128595 for reverse attraction.
Selected 4928 points out of 128595 for reverse attraction.
Stringing feature edges : changed 183 points
Stringing feature edges : changed 0 points
Attraction:
     linear   : max:(0.045004472 -0.020547466 0.0034988247) avg:(1.0510185e-05 -1.8204741e-06 -1.5806525e-05)
     feature  : max:(-0.19526304 0.14254819 0.20912881) avg:(-2.0858267e-05 -1.5814015e-05 9.5921424e-06)
Feature analysis : total master points:128595 attraction to :
    feature point   : 2
    feature edge    : 1520
    nearest surface : 0
    rest            : 127073

--> FOAM Warning : Displacement (0.0016053681 0.0072928818 -0.0019519302) at mesh point 8 coord (-174.90596 -143.00091 -263.35066) points through the surrounding patch faces
Smoothing displacement ...
Iteration 0
Iteration 10
Iteration 20
Iteration 30
Iteration 40
Iteration 50
Iteration 60
Iteration 70
Iteration 80
Iteration 90
Iteration 100
Iteration 110
Iteration 120
Iteration 130
Iteration 140
Iteration 150
Iteration 160
Iteration 170
Iteration 180
Iteration 190
Iteration 200
Iteration 210
Iteration 220
Iteration 230
Iteration 240
Iteration 250
Iteration 260
Iteration 270
Iteration 280
Iteration 290
Displacement smoothed in = 6.29 s


Moving mesh ...

Iteration 0
Moving mesh using displacement scaling : min:1  max:1
Checking faces in error :
    non-orthogonality > 80  degrees                        : 0
    faces with face pyramid volume < 1e-13                 : 7
    faces with concavity > 80  degrees                     : 5
    faces with skewness > 4   (internal) or 4   (boundary) : 3
    faces with interpolation weights (0..1)  < 0.05        : 0
    faces with volume ratio of neighbour cells < 0.01      : 0
    faces with face twist < 0.02                           : 25
    faces on cells with determinant < 0.001                : 0

Iteration 1
Moving mesh using displacement scaling : min:0.75  max:1
Checking faces in error :
    non-orthogonality > 80  degrees                        : 0
    faces with face pyramid volume < 1e-13                 : 4
    faces with concavity > 80  degrees                     : 2
    faces with skewness > 4   (internal) or 4   (boundary) : 2
    faces with interpolation weights (0..1)  < 0.05        : 0
    faces with volume ratio of neighbour cells < 0.01      : 0
    faces with face twist < 0.02                           : 25
    faces on cells with determinant < 0.001                : 0

Iteration 2
Moving mesh using displacement scaling : min:0.5625  max:1
Checking faces in error :
    non-orthogonality > 80  degrees                        : 0
    faces with face pyramid volume < 1e-13                 : 3
    faces with concavity > 80  degrees                     : 4
    faces with skewness > 4   (internal) or 4   (boundary) : 2
    faces with interpolation weights (0..1)  < 0.05        : 0
    faces with volume ratio of neighbour cells < 0.01      : 0
    faces with face twist < 0.02                           : 19
    faces on cells with determinant < 0.001                : 0

Iteration 3
Moving mesh using displacement scaling : min:0.421875  max:1
Checking faces in error :
    non-orthogonality > 80  degrees                        : 0
    faces with face pyramid volume < 1e-13                 : 1
    faces with concavity > 80  degrees                     : 3
    faces with skewness > 4   (internal) or 4   (boundary) : 2
    faces with interpolation weights (0..1)  < 0.05        : 0
    faces with volume ratio of neighbour cells < 0.01      : 0
    faces with face twist < 0.02                           : 19
    faces on cells with determinant < 0.001                : 0

Iteration 4
Moving mesh using displacement scaling : min:0.31640625  max:1
Checking faces in error :
    non-orthogonality > 80  degrees                        : 0
    faces with face pyramid volume < 1e-13                 : 1
    faces with concavity > 80  degrees                     : 3
    faces with skewness > 4   (internal) or 4   (boundary) : 2
    faces with interpolation weights (0..1)  < 0.05        : 0
    faces with volume ratio of neighbour cells < 0.01      : 0
    faces with face twist < 0.02                           : 18
    faces on cells with determinant < 0.001                : 0

Iteration 5
Displacement scaling for error reduction set to 0.
Moving mesh using displacement scaling : min:0.23730469  max:1
Checking faces in error :
    non-orthogonality > 80  degrees                        : 0
    faces with face pyramid volume < 1e-13                 : 0
    faces with concavity > 80  degrees                     : 3
    faces with skewness > 4   (internal) or 4   (boundary) : 2
    faces with interpolation weights (0..1)  < 0.05        : 0
    faces with volume ratio of neighbour cells < 0.01      : 0
    faces with face twist < 0.02                           : 17
    faces on cells with determinant < 0.001                : 0

Iteration 6
Moving mesh using displacement scaling : min:0  max:1
Checking faces in error :
    non-orthogonality > 80  degrees                        : 0
    faces with face pyramid volume < 1e-13                 : 0
    faces with concavity > 80  degrees                     : 0
    faces with skewness > 4   (internal) or 4   (boundary) : 0
    faces with interpolation weights (0..1)  < 0.05        : 0
    faces with volume ratio of neighbour cells < 0.01      : 0
    faces with face twist < 0.02                           : 0
    faces on cells with determinant < 0.001                : 0
Successfully moved mesh
Moved mesh in = 3.15 s



Morph iteration 8
-----------------
Calculating patchDisplacement as distance to nearest surface point ...
Wanted displacement : average:0.0016558076 min:1.3694172e-08 max:0.0495968
Calculated surface displacement in = 0.1 s


Detecting near surfaces ...
Overriding nearest with intersection of close gaps at 83 out of 128595 points.
Overriding displacement on features :
   implicit features    : false
   explicit features    : true
   multi-patch features : false

Detected 233 baffle edges out of 256926 edges.
Initially selected 1542 points out of 128595 for reverse attraction.
Selected 4927 points out of 128595 for reverse attraction.
Stringing feature edges : changed 130 points
Stringing feature edges : changed 0 points
Attraction:
     linear   : max:(0.01630556 0.04576367 -0.024211111) avg:(-3.5711714e-06 -1.5135343e-05 -1.8706972e-05)
     feature  : max:(-0.1951175 0.14212173 0.20955447) avg:(-8.1424436e-06 -1.0302881e-05 3.216449e-06)
Feature analysis : total master points:128595 attraction to :
    feature point   : 1
    feature edge    : 1520
    nearest surface : 0
    rest            : 127074

--> FOAM Warning : Displacement (0.0045017993 0.015269616 -0.00028926477) at mesh point 8 coord (-174.90436 -142.99362 -263.35262) points through the surrounding patch faces
Smoothing displacement ...
Iteration 0
Iteration 10
Iteration 20
Iteration 30
Iteration 40
Iteration 50
Iteration 60
Iteration 70
Iteration 80
Iteration 90
Iteration 100
Iteration 110
Iteration 120
Iteration 130
Iteration 140
Iteration 150
Iteration 160
Iteration 170
Iteration 180
Iteration 190
Iteration 200
Iteration 210
Iteration 220
Iteration 230
Iteration 240
Iteration 250
Iteration 260
Iteration 270
Iteration 280
Iteration 290
Displacement smoothed in = 6.39 s


Moving mesh ...

Iteration 0
Moving mesh using displacement scaling : min:1  max:1
Checking faces in error :
    non-orthogonality > 80  degrees                        : 1
    faces with face pyramid volume < 1e-13                 : 11
    faces with concavity > 80  degrees                     : 12
    faces with skewness > 4   (internal) or 4   (boundary) : 2
    faces with interpolation weights (0..1)  < 0.05        : 0
    faces with volume ratio of neighbour cells < 0.01      : 0
    faces with face twist < 0.02                           : 30
    faces on cells with determinant < 0.001                : 0

Iteration 1
Moving mesh using displacement scaling : min:0.75  max:1
Checking faces in error :
    non-orthogonality > 80  degrees                        : 0
    faces with face pyramid volume < 1e-13                 : 6
    faces with concavity > 80  degrees                     : 8
    faces with skewness > 4   (internal) or 4   (boundary) : 2
    faces with interpolation weights (0..1)  < 0.05        : 0
    faces with volume ratio of neighbour cells < 0.01      : 0
    faces with face twist < 0.02                           : 27
    faces on cells with determinant < 0.001                : 0

Iteration 2
Moving mesh using displacement scaling : min:0.5625  max:1
Checking faces in error :
    non-orthogonality > 80  degrees                        : 0
    faces with face pyramid volume < 1e-13                 : 3
    faces with concavity > 80  degrees                     : 4
    faces with skewness > 4   (internal) or 4   (boundary) : 2
    faces with interpolation weights (0..1)  < 0.05        : 0
    faces with volume ratio of neighbour cells < 0.01      : 0
    faces with face twist < 0.02                           : 29
    faces on cells with determinant < 0.001                : 0

Iteration 3
Moving mesh using displacement scaling : min:0.421875  max:1
Checking faces in error :
    non-orthogonality > 80  degrees                        : 0
    faces with face pyramid volume < 1e-13                 : 2
    faces with concavity > 80  degrees                     : 4
    faces with skewness > 4   (internal) or 4   (boundary) : 2
    faces with interpolation weights (0..1)  < 0.05        : 0
    faces with volume ratio of neighbour cells < 0.01      : 0
    faces with face twist < 0.02                           : 27
    faces on cells with determinant < 0.001                : 0

Iteration 4
Moving mesh using displacement scaling : min:0.31640625  max:1
Checking faces in error :
    non-orthogonality > 80  degrees                        : 0
    faces with face pyramid volume < 1e-13                 : 1
    faces with concavity > 80  degrees                     : 2
    faces with skewness > 4   (internal) or 4   (boundary) : 2
    faces with interpolation weights (0..1)  < 0.05        : 0
    faces with volume ratio of neighbour cells < 0.01      : 0
    faces with face twist < 0.02                           : 27
    faces on cells with determinant < 0.001                : 0

Iteration 5
Displacement scaling for error reduction set to 0.
Moving mesh using displacement scaling : min:0.23730469  max:1
Checking faces in error :
    non-orthogonality > 80  degrees                        : 0
    faces with face pyramid volume < 1e-13                 : 1
    faces with concavity > 80  degrees                     : 2
    faces with skewness > 4   (internal) or 4   (boundary) : 2
    faces with interpolation weights (0..1)  < 0.05        : 0
    faces with volume ratio of neighbour cells < 0.01      : 0
    faces with face twist < 0.02                           : 22
    faces on cells with determinant < 0.001                : 0

Iteration 6
Moving mesh using displacement scaling : min:0  max:1
Checking faces in error :
    non-orthogonality > 80  degrees                        : 0
    faces with face pyramid volume < 1e-13                 : 0
    faces with concavity > 80  degrees                     : 0
    faces with skewness > 4   (internal) or 4   (boundary) : 0
    faces with interpolation weights (0..1)  < 0.05        : 0
    faces with volume ratio of neighbour cells < 0.01      : 0
    faces with face twist < 0.02                           : 0
    faces on cells with determinant < 0.001                : 0
Successfully moved mesh
Moved mesh in = 3.11 s



Morph iteration 9
-----------------
Calculating patchDisplacement as distance to nearest surface point ...
Wanted displacement : average:0.00039785351 min:6.1035742e-10 max:0.0495968
Calculated surface displacement in = 0.12 s


Detecting near surfaces ...
Overriding nearest with intersection of close gaps at 100 out of 128595 points.
Overriding displacement on features :
   implicit features    : false
   explicit features    : true
   multi-patch features : false

Detected 362 baffle edges out of 256926 edges.
Initially selected 1540 points out of 128595 for reverse attraction.
Selected 4917 points out of 128595 for reverse attraction.
Stringing feature edges : changed 83 points
Stringing feature edges : changed 0 points
Attraction:
     linear   : max:(0.045004472 -0.020547466 0.0034988247) avg:(-7.2939389e-06 -1.198935e-05 -1.2220452e-05)
     feature  : max:(-0.1951175 0.14212173 0.20955447) avg:(-5.4959108e-06 -1.0324758e-05 6.3463763e-06)
Feature analysis : total master points:128595 attraction to :
    feature point   : 1
    feature edge    : 1518
    nearest surface : 0
    rest            : 127076

--> FOAM Warning : Displacement (0.00051345965 0.00035706762 0.0013914716) at mesh point 95496 coord (-175.04879 -143.0125 -263.29585) points through the surrounding patch faces
Smoothing displacement ...
Iteration 0
Iteration 10
Iteration 20
Iteration 30
Iteration 40
Iteration 50
Iteration 60
Iteration 70
Iteration 80
Iteration 90
Iteration 100
Iteration 110
Iteration 120
Iteration 130
Iteration 140
Iteration 150
Iteration 160
Iteration 170
Iteration 180
Iteration 190
Iteration 200
Iteration 210
Iteration 220
Iteration 230
Iteration 240
Iteration 250
Iteration 260
Iteration 270
Iteration 280
Iteration 290
Displacement smoothed in = 5.97 s


Moving mesh ...

Iteration 0
Moving mesh using displacement scaling : min:1  max:1
Checking faces in error :
    non-orthogonality > 80  degrees                        : 2
    faces with face pyramid volume < 1e-13                 : 13
    faces with concavity > 80  degrees                     : 13
    faces with skewness > 4   (internal) or 4   (boundary) : 4
    faces with interpolation weights (0..1)  < 0.05        : 0
    faces with volume ratio of neighbour cells < 0.01      : 0
    faces with face twist < 0.02                           : 36
    faces on cells with determinant < 0.001                : 0

Iteration 1
Moving mesh using displacement scaling : min:0.75  max:1
Checking faces in error :
    non-orthogonality > 80  degrees                        : 1
    faces with face pyramid volume < 1e-13                 : 8
    faces with concavity > 80  degrees                     : 10
    faces with skewness > 4   (internal) or 4   (boundary) : 4
    faces with interpolation weights (0..1)  < 0.05        : 0
    faces with volume ratio of neighbour cells < 0.01      : 0
    faces with face twist < 0.02                           : 38
    faces on cells with determinant < 0.001                : 0

Iteration 2
Moving mesh using displacement scaling : min:0.5625  max:1
Checking faces in error :
    non-orthogonality > 80  degrees                        : 0
    faces with face pyramid volume < 1e-13                 : 6
    faces with concavity > 80  degrees                     : 11
    faces with skewness > 4   (internal) or 4   (boundary) : 4
    faces with interpolation weights (0..1)  < 0.05        : 0
    faces with volume ratio of neighbour cells < 0.01      : 0
    faces with face twist < 0.02                           : 33
    faces on cells with determinant < 0.001                : 0

Iteration 3
Moving mesh using displacement scaling : min:0.421875  max:1
Checking faces in error :
    non-orthogonality > 80  degrees                        : 0
    faces with face pyramid volume < 1e-13                 : 3
    faces with concavity > 80  degrees                     : 9
    faces with skewness > 4   (internal) or 4   (boundary) : 3
    faces with interpolation weights (0..1)  < 0.05        : 0
    faces with volume ratio of neighbour cells < 0.01      : 0
    faces with face twist < 0.02                           : 33
    faces on cells with determinant < 0.001                : 0

Iteration 4
Moving mesh using displacement scaling : min:0.31640625  max:1
Checking faces in error :
    non-orthogonality > 80  degrees                        : 0
    faces with face pyramid volume < 1e-13                 : 3
    faces with concavity > 80  degrees                     : 9
    faces with skewness > 4   (internal) or 4   (boundary) : 3
    faces with interpolation weights (0..1)  < 0.05        : 0
    faces with volume ratio of neighbour cells < 0.01      : 0
    faces with face twist < 0.02                           : 31
    faces on cells with determinant < 0.001                : 0

Iteration 5
Displacement scaling for error reduction set to 0.
Moving mesh using displacement scaling : min:0.23730469  max:1
Checking faces in error :
    non-orthogonality > 80  degrees                        : 0
    faces with face pyramid volume < 1e-13                 : 1
    faces with concavity > 80  degrees                     : 7
    faces with skewness > 4   (internal) or 4   (boundary) : 3
    faces with interpolation weights (0..1)  < 0.05        : 0
    faces with volume ratio of neighbour cells < 0.01      : 0
    faces with face twist < 0.02                           : 32
    faces on cells with determinant < 0.001                : 0

Iteration 6
Moving mesh using displacement scaling : min:0  max:1
Checking faces in error :
    non-orthogonality > 80  degrees                        : 0
    faces with face pyramid volume < 1e-13                 : 0
    faces with concavity > 80  degrees                     : 0
    faces with skewness > 4   (internal) or 4   (boundary) : 0
    faces with interpolation weights (0..1)  < 0.05        : 0
    faces with volume ratio of neighbour cells < 0.01      : 0
    faces with face twist < 0.02                           : 0
    faces on cells with determinant < 0.001                : 0
Successfully moved mesh
Moved mesh in = 3.17 s


Repatching faces according to nearest surface ...
Repatched 298 faces in = 0.41 s


Edge intersection testing:
    Number of edges             : 884874
    Number of edges to retest   : 355734
    Number of intersected edges : 128324
Merging 33976 sets of faces.

Edge intersection testing:
    Number of edges             : 833596
    Number of edges to retest   : 135541
    Number of intersected edges : 77046

Undo iteration 0
----------------
Checking faces in error :
    non-orthogonality > 80  degrees                        : 0
    faces with face pyramid volume < 1e-13                 : 0
    faces with concavity > 80  degrees                     : 0
    faces with skewness > 4   (internal) or 4   (boundary) : 0
    faces with interpolation weights (0..1)  < 0.05        : 0
    faces with volume ratio of neighbour cells < 0.01      : 0
    faces with face twist < 0.02                           : 1
    faces on cells with determinant < 0.001                : 0
Masters that need to be restored:1
Edge intersection testing:
    Number of edges             : 833597
    Number of edges to retest   : 6
    Number of intersected edges : 77047


Undo iteration 1
----------------
Checking faces in error :
    non-orthogonality > 80  degrees                        : 0
    faces with face pyramid volume < 1e-13                 : 0
    faces with concavity > 80  degrees                     : 0
    faces with skewness > 4   (internal) or 4   (boundary) : 0
    faces with interpolation weights (0..1)  < 0.05        : 0
    faces with volume ratio of neighbour cells < 0.01      : 0
    faces with face twist < 0.02                           : 0
    faces on cells with determinant < 0.001                : 0

Merging all points on surface that
- are used by only two boundary faces and
- make an angle with a cosine of more than 0.8660254.

Removing 17358 straight edge points ...

Edge intersection testing:
    Number of edges             : 833597
    Number of edges to retest   : 102065
    Number of intersected edges : 77042

Undo iteration 0
----------------
Checking faces in error :
    non-orthogonality > 80  degrees                        : 0
    faces with face pyramid volume < 1e-13                 : 0
    faces with concavity > 80  degrees                     : 0
    faces with skewness > 4   (internal) or 4   (boundary) : 0
    faces with interpolation weights (0..1)  < 0.05        : 0
    faces with volume ratio of neighbour cells < 0.01      : 0
    faces with face twist < 0.02                           : 0
    faces on cells with determinant < 0.001                : 0
Snapped mesh : cells:256761  faces:833597  points:337189
Cells per refinement level:
    0	7103
    1	45081
    2	204577
Writing mesh to time constant
Wrote mesh in = 7.01 s.
Mesh snapped in = 97.5 s.

Shrinking and layer addition phase
----------------------------------

Using mesh parameters 
{
    maxNonOrtho     80;
    maxBoundarySkewness 4;
    maxInternalSkewness 4;
    maxConcave      80;
    minVol          1e-13;
    minTetQuality   -1e+30;
    minArea         -1;
    minTwist        0.02;
    minDeterminant  0.001;
    minFaceWeight   0.05;
    minVolRatio     0.01;
    minTriangleTwist -1;
    relaxed
    {
        maxNonOrtho     75;
    }
    nSmoothScale    4;
    errorReduction  0.75;
}



Merging all faces of a cell
---------------------------
    - which are on the same patch
    - which make an angle < 130 degrees
      (cos:-0.64278761)
    - as long as the resulting face doesn't become concave by more than 90 degrees
      (0=straight, 180=fully concave)

Merging 161 sets of faces.

Edge intersection testing:
    Number of edges             : 833362
    Number of edges to retest   : 1110
    Number of intersected edges : 76811

Undo iteration 0
----------------
Checking faces in error :
    non-orthogonality > 80  degrees                        : 0
    faces with face pyramid volume < 1e-13                 : 0
    faces with concavity > 80  degrees                     : 3
    faces with skewness > 4   (internal) or 4   (boundary) : 0
    faces with interpolation weights (0..1)  < 0.05        : 0
    faces with volume ratio of neighbour cells < 0.01      : 0
    faces with face twist < 0.02                           : 17
    faces on cells with determinant < 0.001                : 0
Masters that need to be restored:20
Edge intersection testing:
    Number of edges             : 833383
    Number of edges to retest   : 118
    Number of intersected edges : 76832


Undo iteration 1
----------------
Checking faces in error :
    non-orthogonality > 80  degrees                        : 0
    faces with face pyramid volume < 1e-13                 : 0
    faces with concavity > 80  degrees                     : 0
    faces with skewness > 4   (internal) or 4   (boundary) : 0
    faces with interpolation weights (0..1)  < 0.05        : 0
    faces with volume ratio of neighbour cells < 0.01      : 0
    faces with face twist < 0.02                           : 0
    faces on cells with determinant < 0.001                : 0

Merging all points on surface that
- are used by only two boundary faces and
- make an angle with a cosine of more than -0.64278761.

Removing 197 straight edge points ...

Edge intersection testing:
    Number of edges             : 833383
    Number of edges to retest   : 1535
    Number of intersected edges : 76822

Undo iteration 0
----------------
Checking faces in error :
    non-orthogonality > 80  degrees                        : 0
    faces with face pyramid volume < 1e-13                 : 0
    faces with concavity > 80  degrees                     : 0
    faces with skewness > 4   (internal) or 4   (boundary) : 0
    faces with interpolation weights (0..1)  < 0.05        : 0
    faces with volume ratio of neighbour cells < 0.01      : 0
    faces with face twist < 0.02                           : 0
    faces on cells with determinant < 0.001                : 0

Checking mesh manifoldness ...

Checking initial mesh ...
Checking faces in error :
    non-orthogonality > 80  degrees                        : 0
    faces with face pyramid volume < 1e-13                 : 0
    faces with concavity > 80  degrees                     : 0
    faces with skewness > 4   (internal) or 4   (boundary) : 0
    faces with interpolation weights (0..1)  < 0.05        : 0
    faces with volume ratio of neighbour cells < 0.01      : 0
    faces with face twist < 0.02                           : 0
    faces on cells with determinant < 0.001                : 0
Detected 0 illegal faces (concave, zero area or negative cell pyramid volume)

Adding in total 0 inter-processor patches to handle extrusion of non-manifold processor boundaries.

Handling points with inconsistent layer specification ...

Handling non-manifold points ...

Checking patch manifoldness ...
Outside of local patch is multiply connected across edges or points at 0 points.
Set displacement to zero for all 0 non-manifold points

Handling feature edges ...

Handling cells with warped patch faces ...
Set displacement to zero on 23 warped faces since layer would be > 0.5 of the size of the bounding box.

patch faces    layers avg thickness[m]
                     near-wall overall
----- -----    ------ --------- -------
wall 73765    5      0.0662    0.492   

Selecting externalDisplacementMeshMover displacementMedialAxis
displacementMedialAxis : Calculating distance to Medial Axis ...
displacementMedialAxis : Smoothing normals ...
    Iteration 0   residual 0.0092821939
displacementMedialAxis : Limited walk to 10 steps. Not visited 656 out of 336920 points
displacementMedialAxis : Inserting points on patch minX if angle to nearest layer patch > 30 degrees.
displacementMedialAxis : Inserting points on patch maxX if angle to nearest layer patch > 30 degrees.
displacementMedialAxis : Inserting points on patch minY if angle to nearest layer patch > 30 degrees.
displacementMedialAxis : Inserting points on patch maxY if angle to nearest layer patch > 30 degrees.
displacementMedialAxis : Inserting points on patch minZ if angle to nearest layer patch > 30 degrees.
displacementMedialAxis : Inserting points on patch maxZ if angle to nearest layer patch > 30 degrees.
displacementMedialAxis : Inserting points on patch outlet1 if angle to nearest layer patch > 30 degrees.
displacementMedialAxis : Inserting points on patch outlet2 if angle to nearest layer patch > 30 degrees.
displacementMedialAxis : Inserting points on patch outlet3 if angle to nearest layer patch > 30 degrees.
displacementMedialAxis : Inserting points on patch outlet4 if angle to nearest layer patch > 30 degrees.
displacementMedialAxis : Inserting points on patch inlet if angle to nearest layer patch > 30 degrees.
displacementMedialAxis : Smoothing normals in interior ...
    Iteration 0   residual 0.021859189

Layer addition iteration 0
--------------------------

Determining displacement for added points according to pointNormal ...
Detected 2 points with point normal pointing through faces.
Reset displacement at 2 points to average of surrounding points.

displacementMedialAxis : Smoothing using Medial Axis ...
displacementMedialAxis : Reducing layer thickness at 0 nodes where thickness to medial axis distance is large 
displacementMedialAxis : Removing isolated regions ...
displacementMedialAxis : Number of isolated points extrusion stopped : 8
displacementMedialAxis : Smoothing field ...
    Iteration 0   residual 0.00014018039
displacementMedialAxis : Moving mesh ...
displacementMedialAxis : Iteration 0
Moving mesh using displacement scaling : min:1  max:1
Checking faces in error :
    non-orthogonality > 80  degrees                        : 251
    faces with face pyramid volume < 1e-13                 : 226
    faces with concavity > 80  degrees                     : 10
    faces with skewness > 4   (internal) or 4   (boundary) : 2
    faces with interpolation weights (0..1)  < 0.05        : 13
    faces with volume ratio of neighbour cells < 0.01      : 3
    faces with face twist < 0.02                           : 133
    faces on cells with determinant < 0.001                : 48
displacementMedialAxis : Iteration 1
Moving mesh using displacement scaling : min:0.75  max:1
Checking faces in error :
    non-orthogonality > 80  degrees                        : 95
    faces with face pyramid volume < 1e-13                 : 85
    faces with concavity > 80  degrees                     : 5
    faces with skewness > 4   (internal) or 4   (boundary) : 2
    faces with interpolation weights (0..1)  < 0.05        : 6
    faces with volume ratio of neighbour cells < 0.01      : 1
    faces with face twist < 0.02                           : 50
    faces on cells with determinant < 0.001                : 87
displacementMedialAxis : Iteration 2
Moving mesh using displacement scaling : min:0.5625  max:1
Checking faces in error :
[...]
displacementMedialAxis : Smoothing field ...
    Iteration 0   residual 0.00036574246
displacementMedialAxis : Moving mesh ...
displacementMedialAxis : Iteration 0
Moving mesh using displacement scaling : min:1  max:1
Checking faces in error :
    non-orthogonality > 80  degrees                        : 93
    faces with face pyramid volume < 1e-13                 : 89
    faces with concavity > 80  degrees                     : 13
    faces with skewness > 4   (internal) or 4   (boundary) : 0
    faces with interpolation weights (0..1)  < 0.05        : 11
    faces with volume ratio of neighbour cells < 0.01      : 2
    faces with face twist < 0.02                           : 85
    faces on cells with determinant < 0.001                : 77
displacementMedialAxis : Iteration 1
Moving mesh using displacement scaling : min:0.75  max:1
Checking faces in error :
    non-orthogonality > 80  degrees                        : 23
    faces with face pyramid volume < 1e-13                 : 24
    faces with concavity > 80  degrees                     : 3
    faces with skewness > 4   (internal) or 4   (boundary) : 0
    faces with interpolation weights (0..1)  < 0.05        : 4
    faces with volume ratio of neighbour cells < 0.01      : 1
    faces with face twist < 0.02                           : 35
    faces on cells with determinant < 0.001                : 55
displacementMedialAxis : Iteration 2
Moving mesh using displacement scaling : min:0.5625  max:1
Checking faces in error :
    non-orthogonality > 80  degrees                        : 3
    faces with face pyramid volume < 1e-13                 : 2
    faces with concavity > 80  degrees                     : 1
    faces with skewness > 4   (internal) or 4   (boundary) : 0
    faces with interpolation weights (0..1)  < 0.05        : 1
    faces with volume ratio of neighbour cells < 0.01      : 0
    faces with face twist < 0.02                           : 11
    faces on cells with determinant < 0.001                : 30
displacementMedialAxis : Iteration 3
Moving mesh using displacement scaling : min:0.421875  max:1
Checking faces in error :
    non-orthogonality > 80  degrees                        : 0
    faces with face pyramid volume < 1e-13                 : 0
    faces with concavity > 80  degrees                     : 1
    faces with skewness > 4   (internal) or 4   (boundary) : 0
    faces with interpolation weights (0..1)  < 0.05        : 0
    faces with volume ratio of neighbour cells < 0.01      : 0
    faces with face twist < 0.02                           : 9
    faces on cells with determinant < 0.001                : 4
displacementMedialAxis : Iteration 4
Moving mesh using displacement scaling : min:0.31640625  max:1
Checking faces in error :
    non-orthogonality > 80  degrees                        : 0
    faces with face pyramid volume < 1e-13                 : 0
    faces with concavity > 80  degrees                     : 0
    faces with skewness > 4   (internal) or 4   (boundary) : 0
    faces with interpolation weights (0..1)  < 0.05        : 0
    faces with volume ratio of neighbour cells < 0.01      : 0
    faces with face twist < 0.02                           : 4
    faces on cells with determinant < 0.001                : 0
displacementMedialAxis : Iteration 5
displacementMedialAxis : Displacement scaling for error reduction set to 0.
Moving mesh using displacement scaling : min:0.23730469  max:1
Checking faces in error :
    non-orthogonality > 80  degrees                        : 0
    faces with face pyramid volume < 1e-13                 : 0
    faces with concavity > 80  degrees                     : 0
    faces with skewness > 4   (internal) or 4   (boundary) : 0
    faces with interpolation weights (0..1)  < 0.05        : 0
    faces with volume ratio of neighbour cells < 0.01      : 0
    faces with face twist < 0.02                           : 4
    faces on cells with determinant < 0.001                : 0
displacementMedialAxis : Iteration 6
Moving mesh using displacement scaling : min:0  max:1
Checking faces in error :
    non-orthogonality > 80  degrees                        : 0
    faces with face pyramid volume < 1e-13                 : 1
    faces with concavity > 80  degrees                     : 0
    faces with skewness > 4   (internal) or 4   (boundary) : 0
    faces with interpolation weights (0..1)  < 0.05        : 0
    faces with volume ratio of neighbour cells < 0.01      : 0
    faces with face twist < 0.02                           : 5
    faces on cells with determinant < 0.001                : 2
displacementMedialAxis : Iteration 7
Moving mesh using displacement scaling : min:0  max:1
Checking faces in error :
    non-orthogonality > 80  degrees                        : 2
    faces with face pyramid volume < 1e-13                 : 2
    faces with concavity > 80  degrees                     : 0
    faces with skewness > 4   (internal) or 4   (boundary) : 0
    faces with interpolation weights (0..1)  < 0.05        : 0
    faces with volume ratio of neighbour cells < 0.01      : 0
    faces with face twist < 0.02                           : 0
    faces on cells with determinant < 0.001                : 0
displacementMedialAxis : Iteration 8
Moving mesh using displacement scaling : min:0  max:1
Checking faces in error :
    non-orthogonality > 80  degrees                        : 0
    faces with face pyramid volume < 1e-13                 : 0
    faces with concavity > 80  degrees                     : 0
    faces with skewness > 4   (internal) or 4   (boundary) : 0
    faces with interpolation weights (0..1)  < 0.05        : 0
    faces with volume ratio of neighbour cells < 0.01      : 0
    faces with face twist < 0.02                           : 0
    faces on cells with determinant < 0.001                : 0
displacementMedialAxis : Successfully moved mesh
displacementMedialAxis : Finished moving mesh ...
truncateDisplacement : Unextruded 0 faces due to non-consecutive vertices being extruded.
truncateDisplacement : Unextruded 0 faces due to stringed edges with inconsistent extrusion.

Setting up information for layer truncation ...

Checking mesh with layer ...
Checking faces in error :
    non-orthogonality > 80  degrees                        : 4
    faces with face pyramid volume < 1e-13                 : 15
    faces with concavity > 80  degrees                     : 2
    faces with skewness > 4   (internal) or 4   (boundary) : 11
    faces with interpolation weights (0..1)  < 0.05        : 0
    faces with volume ratio of neighbour cells < 0.01      : 0
    faces with face twist < 0.02                           : 34
    faces on cells with determinant < 0.001                : 5
Detected 71 illegal faces (concave, zero area or negative cell pyramid volume)
Extruding 73541 out of 73765 faces (99.696333%). Removed extrusion at 10 faces.
Added 361227 out of 368825 cells (97.939944%).


Layer addition iteration 2
--------------------------

Determining displacement for added points according to pointNormal ...
Detected 0 points with point normal pointing through faces.
Reset displacement at 0 points to average of surrounding points.

displacementMedialAxis : Smoothing using Medial Axis ...
displacementMedialAxis : Reducing layer thickness at 0 nodes where thickness to medial axis distance is large 
displacementMedialAxis : Removing isolated regions ...
displacementMedialAxis : Number of isolated points extrusion stopped : 13
displacementMedialAxis : Smoothing field ...
    Iteration 0   residual 0.00040096424
displacementMedialAxis : Moving mesh ...
displacementMedialAxis : Iteration 0
Moving mesh using displacement scaling : min:1  max:1
Checking faces in error :
    non-orthogonality > 80  degrees                        : 87
    faces with face pyramid volume < 1e-13                 : 73
    faces with concavity > 80  degrees                     : 12
    faces with skewness > 4   (internal) or 4   (boundary) : 0
    faces with interpolation weights (0..1)  < 0.05        : 13
    faces with volume ratio of neighbour cells < 0.01      : 2
    faces with face twist < 0.02                           : 72
    faces on cells with determinant < 0.001                : 77
displacementMedialAxis : Iteration 1
Moving mesh using displacement scaling : min:0.75  max:1
Checking faces in error :
    non-orthogonality > 80  degrees                        : 16
    faces with face pyramid volume < 1e-13                 : 20
    faces with concavity > 80  degrees                     : 4
    faces with skewness > 4   (internal) or 4   (boundary) : 0
    faces with interpolation weights (0..1)  < 0.05        : 3
    faces with volume ratio of neighbour cells < 0.01      : 1
    faces with face twist < 0.02                           : 31
    faces on cells with determinant < 0.001                : 47
displacementMedialAxis : Iteration 2
Moving mesh using displacement scaling : min:0.5625  max:1
Checking faces in error :
    non-orthogonality > 80  degrees                        : 2
    faces with face pyramid volume < 1e-13                 : 2
    faces with concavity > 80  degrees                     : 1
    faces with skewness > 4   (internal) or 4   (boundary) : 0
    faces with interpolation weights (0..1)  < 0.05        : 1
    faces with volume ratio of neighbour cells < 0.01      : 0
    faces with face twist < 0.02                           : 7
    faces on cells with determinant < 0.001                : 23
displacementMedialAxis : Iteration 3
Moving mesh using displacement scaling : min:0.421875  max:1
Checking faces in error :
    non-orthogonality > 80  degrees                        : 0
    faces with face pyramid volume < 1e-13                 : 0
    faces with concavity > 80  degrees                     : 1
    faces with skewness > 4   (internal) or 4   (boundary) : 0
    faces with interpolation weights (0..1)  < 0.05        : 0
    faces with volume ratio of neighbour cells < 0.01      : 0
    faces with face twist < 0.02                           : 5
    faces on cells with determinant < 0.001                : 4
displacementMedialAxis : Iteration 4
Moving mesh using displacement scaling : min:0.31640625  max:1
Checking faces in error :
    non-orthogonality > 80  degrees                        : 0
    faces with face pyramid volume < 1e-13                 : 0
    faces with concavity > 80  degrees                     : 0
    faces with skewness > 4   (internal) or 4   (boundary) : 0
    faces with interpolation weights (0..1)  < 0.05        : 0
    faces with volume ratio of neighbour cells < 0.01      : 0
    faces with face twist < 0.02                           : 1
    faces on cells with determinant < 0.001                : 0
displacementMedialAxis : Iteration 5
displacementMedialAxis : Displacement scaling for error reduction set to 0.
Moving mesh using displacement scaling : min:0.23730469  max:1
Checking faces in error :
    non-orthogonality > 80  degrees                        : 0
    faces with face pyramid volume < 1e-13                 : 0
    faces with concavity > 80  degrees                     : 0
    faces with skewness > 4   (internal) or 4   (boundary) : 0
    faces with interpolation weights (0..1)  < 0.05        : 0
    faces with volume ratio of neighbour cells < 0.01      : 0
    faces with face twist < 0.02                           : 0
    faces on cells with determinant < 0.001                : 0
displacementMedialAxis : Successfully moved mesh
displacementMedialAxis : Finished moving mesh ...
truncateDisplacement : Unextruded 0 faces due to non-consecutive vertices being extruded.
truncateDisplacement : Unextruded 0 faces due to stringed edges with inconsistent extrusion.

Setting up information for layer truncation ...

Checking mesh with layer ...
Checking faces in error :
    non-orthogonality > 80  degrees                        : 0
    faces with face pyramid volume < 1e-13                 : 0
    faces with concavity > 80  degrees                     : 0
    faces with skewness > 4   (internal) or 4   (boundary) : 1
    faces with interpolation weights (0..1)  < 0.05        : 0
    faces with volume ratio of neighbour cells < 0.01      : 0
    faces with face twist < 0.02                           : 2
    faces on cells with determinant < 0.001                : 0
Detected 3 illegal faces (concave, zero area or negative cell pyramid volume)
Extruding 73530 out of 73765 faces (99.681421%). Removed extrusion at 1 faces.
Added 360560 out of 368825 cells (97.7591%).


Layer addition iteration 3
--------------------------

Determining displacement for added points according to pointNormal ...
Detected 0 points with point normal pointing through faces.
Reset displacement at 0 points to average of surrounding points.

displacementMedialAxis : Smoothing using Medial Axis ...
displacementMedialAxis : Reducing layer thickness at 0 nodes where thickness to medial axis distance is large 
displacementMedialAxis : Removing isolated regions ...
displacementMedialAxis : Number of isolated points extrusion stopped : 3
displacementMedialAxis : Smoothing field ...
    Iteration 0   residual 0.00040496487
displacementMedialAxis : Moving mesh ...
displacementMedialAxis : Iteration 0
Moving mesh using displacement scaling : min:1  max:1
Checking faces in error :
    non-orthogonality > 80  degrees                        : 91
    faces with face pyramid volume < 1e-13                 : 76
    faces with concavity > 80  degrees                     : 14
    faces with skewness > 4   (internal) or 4   (boundary) : 0
    faces with interpolation weights (0..1)  < 0.05        : 13
    faces with volume ratio of neighbour cells < 0.01      : 2
    faces with face twist < 0.02                           : 72
    faces on cells with determinant < 0.001                : 69
displacementMedialAxis : Iteration 1
Moving mesh using displacement scaling : min:0.75  max:1
Checking faces in error :
    non-orthogonality > 80  degrees                        : 16
    faces with face pyramid volume < 1e-13                 : 22
    faces with concavity > 80  degrees                     : 3
    faces with skewness > 4   (internal) or 4   (boundary) : 0
    faces with interpolation weights (0..1)  < 0.05        : 2
    faces with volume ratio of neighbour cells < 0.01      : 1
    faces with face twist < 0.02                           : 30
    faces on cells with determinant < 0.001                : 50
displacementMedialAxis : Iteration 2
Moving mesh using displacement scaling : min:0.5625  max:1
Checking faces in error :
    non-orthogonality > 80  degrees                        : 2
    faces with face pyramid volume < 1e-13                 : 2
    faces with concavity > 80  degrees                     : 1
    faces with skewness > 4   (internal) or 4   (boundary) : 0
    faces with interpolation weights (0..1)  < 0.05        : 1
    faces with volume ratio of neighbour cells < 0.01      : 0
    faces with face twist < 0.02                           : 7
    faces on cells with determinant < 0.001                : 23
displacementMedialAxis : Iteration 3
Moving mesh using displacement scaling : min:0.421875  max:1
Checking faces in error :
    non-orthogonality > 80  degrees                        : 0
    faces with face pyramid volume < 1e-13                 : 0
    faces with concavity > 80  degrees                     : 1
    faces with skewness > 4   (internal) or 4   (boundary) : 0
    faces with interpolation weights (0..1)  < 0.05        : 0
    faces with volume ratio of neighbour cells < 0.01      : 0
    faces with face twist < 0.02                           : 5
    faces on cells with determinant < 0.001                : 4
displacementMedialAxis : Iteration 4
Moving mesh using displacement scaling : min:0.31640625  max:1
Checking faces in error :
    non-orthogonality > 80  degrees                        : 0
    faces with face pyramid volume < 1e-13                 : 0
    faces with concavity > 80  degrees                     : 0
    faces with skewness > 4   (internal) or 4   (boundary) : 0
    faces with interpolation weights (0..1)  < 0.05        : 0
    faces with volume ratio of neighbour cells < 0.01      : 0
    faces with face twist < 0.02                           : 1
    faces on cells with determinant < 0.001                : 0
displacementMedialAxis : Iteration 5
displacementMedialAxis : Displacement scaling for error reduction set to 0.
Moving mesh using displacement scaling : min:0.23730469  max:1
Checking faces in error :
    non-orthogonality > 80  degrees                        : 0
    faces with face pyramid volume < 1e-13                 : 0
    faces with concavity > 80  degrees                     : 0
    faces with skewness > 4   (internal) or 4   (boundary) : 0
    faces with interpolation weights (0..1)  < 0.05        : 0
    faces with volume ratio of neighbour cells < 0.01      : 0
    faces with face twist < 0.02                           : 0
    faces on cells with determinant < 0.001                : 0
displacementMedialAxis : Successfully moved mesh
displacementMedialAxis : Finished moving mesh ...
truncateDisplacement : Unextruded 0 faces due to non-consecutive vertices being extruded.
truncateDisplacement : Unextruded 0 faces due to stringed edges with inconsistent extrusion.

Setting up information for layer truncation ...

Checking mesh with layer ...
Checking faces in error :
    non-orthogonality > 80  degrees                        : 0
    faces with face pyramid volume < 1e-13                 : 0
    faces with concavity > 80  degrees                     : 0
    faces with skewness > 4   (internal) or 4   (boundary) : 0
    faces with interpolation weights (0..1)  < 0.05        : 0
    faces with volume ratio of neighbour cells < 0.01      : 0
    faces with face twist < 0.02                           : 2
    faces on cells with determinant < 0.001                : 0
Detected 2 illegal faces (concave, zero area or negative cell pyramid volume)
Extruding 73530 out of 73765 faces (99.681421%). Removed extrusion at 0 faces.
Added 360501 out of 368825 cells (97.743103%).
Edge intersection testing:
    Number of edges             : 1996378
    Number of edges to retest   : 0
    Number of intersected edges : 439186

patch faces    layers   overall thickness
                       [m]       [%]
----- -----    ------   ---       ---
wall 73765    4.89     0.486     98.7    


Removing zero-sized patches:
    minX type patch at position 0
    maxX type patch at position 1
    minY type patch at position 2
    maxY type patch at position 3
    minZ type patch at position 4
    maxZ type patch at position 5

Layer mesh : cells:617262  faces:1996378  points:778885
Cells per refinement level:
    0	7103
    1	45081
    2	565078
Writing mesh to time constant
Wrote mesh in = 42.51 s.
Layers added in = 42.51 s.
Checking final mesh ...
Checking faces in error :
    non-orthogonality > 80  degrees                        : 0
    faces with face pyramid volume < 1e-13                 : 0
    faces with concavity > 80  degrees                     : 0
    faces with skewness > 4   (internal) or 4   (boundary) : 0
    faces with interpolation weights (0..1)  < 0.05        : 0
    faces with volume ratio of neighbour cells < 0.01      : 0
    faces with face twist < 0.02                           : 2
    faces on cells with determinant < 0.001                : 0
Finished meshing with 2 illegal faces (concave, zero area or negative cell pyramid volume)
Finished meshing in = 212.89 s.
End

